1
  DSViewer          3D                             0

 46 49  0  0  0  0  0  0  0  0999 V2000
    1.8786   -1.0483   -0.1128 C   0  0
    2.8849   -1.6400    2.0025 C   0  0
    2.4305   -4.8016    0.5476 C   0  0
    0.8000   -0.4750    0.5607 C   0  0
    1.8063   -1.0666    2.6760 C   0  0
    1.7730   -5.7710    1.3049 C   0  0
    3.7973   -6.1594    2.5652 C   0  0
    2.9210   -1.6309    0.6081 C   0  0
    4.9367   -1.6582   -0.9572 C   0  0
    3.7715   -4.5112    0.7990 C   0  0
    0.7638   -0.4841    1.9551 C   0  0
    2.4564   -6.4499    2.3137 C   0  0
    4.4549   -5.1901    1.8078 C   0  0
    5.7949   -2.7158   -1.3131 C   0  0
    4.0369   -2.2241   -0.0873 C   0  0
    6.9424   -2.6270   -2.2366 C   0  0
    8.3863   -1.9004   -3.5794 C   0  0
    4.9877   -0.2562   -1.4139 C   0  0
   10.1826    0.2917   -2.4471 C   0  0
    9.0655   -0.8987   -4.4108 C   0  0
   10.3871   -0.3966   -3.7873 C   0  0
    5.4696   -3.8664   -0.7179 N   0  0
    7.7083   -3.6517   -2.5302 N   0  0
    8.6582   -3.1736   -3.4135 N   0  0
    4.3970   -3.5351    0.0209 N   0  0
    7.3087   -1.4761   -2.8642 O   0  0
   -0.5656    0.2251    2.7864 Cl  0  0
    1.6442   -7.6456    3.2478 Cl  0  0
    6.1170   -4.8661    2.1572 Cl  0  0
    1.8924   -1.0334   -1.1999 H   0  0
    3.6902   -2.0901    2.5785 H   0  0
    1.8839   -4.2809   -0.2353 H   0  0
   -0.0056   -0.0249   -0.0142 H   0  0
    1.7910   -1.0815    3.7627 H   0  0
    0.7279   -5.9869    1.0979 H   0  0
    4.3282   -6.6904    3.3525 H   0  0
    4.3852   -0.1126   -2.3260 H   0  0
    4.6084    0.4430   -0.6488 H   0  0
    6.0182    0.0691   -1.6389 H   0  0
    9.5014    1.1431   -2.5434 H   0  0
    9.7654   -0.4016   -1.7098 H   0  0
   11.1375    0.6629   -2.0620 H   0  0
    9.2924   -1.2931   -5.4251 H   0  0
    8.4180   -0.0151   -4.6002 H   0  0
   11.0728   -1.2425   -3.6554 H   0  0
   10.8747    0.3015   -4.4786 H   0  0
  1  4  1  0  0  0
  1  8  2  0  0  0
  2  5  2  0  0  0
  2  8  1  0  0  0
  3  6  1  0  0  0
  3 10  2  0  0  0
  4 11  2  0  0  0
  5 11  1  0  0  0
  6 12  2  0  0  0
  7 12  1  0  0  0
  7 13  2  0  0  0
  8 15  1  0  0  0
  9 14  1  0  0  0
  9 15  2  0  0  0
  9 18  1  0  0  0
 10 13  1  0  0  0
 10 25  1  0  0  0
 11 27  1  0  0  0
 12 28  1  0  0  0
 13 29  1  0  0  0
 14 16  1  0  0  0
 14 22  2  0  0  0
 15 25  1  0  0  0
 16 23  2  0  0  0
 16 26  1  0  0  0
 17 20  1  0  0  0
 17 24  2  0  0  0
 17 26  1  0  0  0
 19 21  1  0  0  0
 20 21  1  0  0  0
 22 25  1  0  0  0
 23 24  1  0  0  0
  1 30  1  0  0  0
  2 31  1  0  0  0
  3 32  1  0  0  0
  4 33  1  0  0  0
  5 34  1  0  0  0
  6 35  1  0  0  0
  7 36  1  0  0  0
 18 37  1  0  0  0
 18 38  1  0  0  0
 18 39  1  0  0  0
 19 40  1  0  0  0
 19 41  1  0  0  0
 19 42  1  0  0  0
 20 43  1  0  0  0
 20 44  1  0  0  0
 21 45  1  0  0  0
 21 46  1  0  0  0
M  END
> <Experimental_pIC50>
6.8

> <original_article_set>
training

$$$$
10
  SciTegic08162114073D

 47 51  0  0  0  0            999 V2000
   -1.7606   -6.5076    5.8020 C   0  0
    0.4398   -7.4421    6.1514 C   0  0
   -0.4961   -8.9899    3.1436 C   0  0
   -2.1940   -7.0809    6.9973 C   0  0
    0.0064   -8.0154    7.3469 C   0  0
   -0.3866  -10.3786    3.0722 C   0  0
    1.9965  -10.1731    2.7320 C   0  0
   -0.4437   -6.6882    5.3789 C   0  0
    0.0494   -4.7771    3.7607 C   0  0
    0.6406   -8.1928    3.0091 C   0  0
   -1.3105   -7.8349    7.7698 C   0  0
    0.8598  -10.9702    2.8664 C   0  0
    1.8869   -8.7843    2.8033 C   0  0
    0.5788   -4.8061    2.4566 C   0  0
    0.0055   -6.0956    4.1429 C   0  0
    0.8268   -3.6334    1.5960 C   0  0
    0.9502   -1.6635    0.8747 C   0  0
    1.7607    1.8393    1.0343 C   0  0
    1.2103    0.7809    2.0090 C   0  0
    2.0108    0.6848    0.0450 C   0  0
    0.8612   -0.0862    0.7617 C   0  0
   -0.3672   -3.5984    4.5442 C   0  0
    0.8520   -6.0448    2.0384 N   0  0
    1.3241   -3.7246    0.3847 N   0  0
    1.4054   -2.4286   -0.0897 N   0  0
    0.4928   -6.8065    3.0858 N   0  0
    0.5622   -2.3549    1.9810 O   0  0
   -1.8442   -8.5406    9.2459 Cl  0  0
    0.9940  -12.6837    2.7787 Cl  0  0
    3.3246   -7.8395    2.6304 Cl  0  0
   -2.4610   -5.9226    5.2108 H   0  0
    1.4696   -7.5916    5.8350 H   0  0
   -1.4748   -8.5438    3.3046 H   0  0
   -3.2233   -6.9322    7.3144 H   0  0
    0.7055   -8.6009    7.9383 H   0  0
   -1.2809  -10.9873    3.1788 H   0  0
    2.9675  -10.6369    2.5714 H   0  0
    1.0079    2.5584    0.6922 H   0  0
    2.6479    2.3819    1.3696 H   0  0
    1.9755    0.3540    2.6688 H   0  0
    0.3598    1.1024    2.6166 H   0  0
    1.8373    0.9250   -1.0073 H   0  0
    3.0043    0.2311    0.1458 H   0  0
   -0.1573    0.2051    0.3316 H   0  0
   -1.4299   -3.3610    4.3714 H   0  0
   -0.2307   -3.7521    5.6285 H   0  0
    0.2221   -2.7010    4.2878 H   0  0
  1  4  1  0
  1  8  2  0
  2  5  2  0
  2  8  1  0
  3  6  1  0
  3 10  2  0
  4 11  2  0
  5 11  1  0
  6 12  2  0
  7 12  1  0
  7 13  2  0
  8 15  1  0
  9 14  1  0
  9 15  2  0
  9 22  1  0
 10 13  1  0
 10 26  1  0
 11 28  1  0
 12 29  1  0
 13 30  1  0
 14 16  1  0
 14 23  2  0
 15 26  1  0
 16 24  2  0
 16 27  1  0
 17 21  1  0
 17 25  2  0
 17 27  1  0
 18 19  1  0
 18 20  1  0
 19 21  1  0
 20 21  1  0
 23 26  1  0
 24 25  1  0
  1 31  1  0
  2 32  1  0
  3 33  1  0
  4 34  1  0
  5 35  1  0
  6 36  1  0
  7 37  1  0
 18 38  1  0
 18 39  1  0
 19 40  1  0
 19 41  1  0
 20 42  1  0
 20 43  1  0
 21 44  1  0
 22 45  1  0
 22 46  1  0
 22 47  1  0
M  END
> <Name>
10

> <Experimental_pIC50>
7.88

> <original_article_set>
training

$$$$
11
  SciTegic08162114073D

 56 60  0  0  0  0            999 V2000
    3.3374   -4.0037  -10.2252 C   0  0
    3.0732   -6.3840   -9.9069 C   0  0
    4.9558   -5.5149   -7.0727 C   0  0
    4.0182   -4.2390  -11.4196 C   0  0
    3.7540   -6.6193  -11.1013 C   0  0
    6.1169   -6.2463   -6.8224 C   0  0
    4.7861   -8.0505   -5.9217 C   0  0
    2.8649   -5.0763   -9.4687 C   0  0
    0.9960   -4.1401   -7.9979 C   0  0
    3.7099   -6.0513   -6.7475 C   0  0
    4.2265   -5.5468  -11.8577 C   0  0
    6.0320   -7.5141   -6.2469 C   0  0
    3.6250   -7.3191   -6.1720 C   0  0
    0.7972   -4.2415   -6.6080 C   0  0
    2.1588   -4.8334   -8.2299 C   0  0
   -0.3258   -3.6575   -5.8481 C   0  0
   -2.0883   -2.6308   -5.3428 C   0  0
   -4.8926    0.1692   -7.6481 C   0  0
   -6.0105   -0.8465   -7.4368 C   0  0
   -4.1114    0.5420   -6.3928 C   0  0
   -5.7440   -1.9795   -6.4510 C   0  0
   -2.9439   -0.4073   -6.1197 C   0  0
   -4.3326   -2.5618   -6.4957 C   0  0
   -3.3400   -1.7983   -5.5959 C   0  0
    0.1495   -3.4455   -8.9866 C   0  0
    1.7566   -4.9441   -5.9998 N   0  0
   -0.4571   -3.7867   -4.5485 N   0  0
   -1.6167   -3.1114   -4.2162 N   0  0
    2.5695   -5.2905   -7.0123 N   0  0
   -1.3237   -2.9352   -6.4270 O   0  0
    5.0644   -5.8375  -13.3325 Cl  0  0
    7.4650   -8.4159   -5.9385 Cl  0  0
    2.1047   -8.0267   -5.7509 Cl  0  0
    3.1828   -2.9787   -9.8968 H   0  0
    2.7106   -7.2306   -9.3283 H   0  0
    5.0386   -4.5280   -7.5220 H   0  0
    4.3812   -3.3934  -11.9986 H   0  0
    3.9096   -7.6435  -11.4302 H   0  0
    7.0810   -5.8158   -7.0810 H   0  0
    4.7225   -9.0395   -5.4728 H   0  0
   -4.2056   -0.1980   -8.4208 H   0  0
   -5.3461    1.0780   -8.0644 H   0  0
   -6.9133   -0.3176   -7.1048 H   0  0
   -6.2648   -1.2762   -8.4142 H   0  0
   -3.6857    1.5414   -6.5501 H   0  0
   -4.7696    0.6197   -5.5201 H   0  0
   -5.9772   -1.6436   -5.4330 H   0  0
   -6.4616   -2.7811   -6.6681 H   0  0
   -2.3343   -0.5056   -7.0284 H   0  0
   -2.2895    0.0686   -5.3760 H   0  0
   -4.3974   -3.5980   -6.1351 H   0  0
   -3.9653   -2.6241   -7.5278 H   0  0
   -3.8108   -1.6621   -4.5988 H   0  0
    0.4640   -2.3963   -9.1128 H   0  0
    0.1893   -3.9283   -9.9783 H   0  0
   -0.9144   -3.4429   -8.6923 H   0  0
  1  4  1  0
  1  8  2  0
  2  5  2  0
  2  8  1  0
  3  6  1  0
  3 10  2  0
  4 11  2  0
  5 11  1  0
  6 12  2  0
  7 12  1  0
  7 13  2  0
  8 15  1  0
  9 14  1  0
  9 15  2  0
  9 25  1  0
 10 13  1  0
 10 29  1  0
 11 31  1  0
 12 32  1  0
 13 33  1  0
 14 16  1  0
 14 26  2  0
 15 29  1  0
 16 27  2  0
 16 30  1  0
 17 24  1  0
 17 28  2  0
 17 30  1  0
 18 19  1  0
 18 20  1  0
 19 21  1  0
 20 22  1  0
 21 23  1  0
 22 24  1  0
 23 24  1  0
 26 29  1  0
 27 28  1  0
  1 34  1  0
  2 35  1  0
  3 36  1  0
  4 37  1  0
  5 38  1  0
  6 39  1  0
  7 40  1  0
 18 41  1  0
 18 42  1  0
 19 43  1  0
 19 44  1  0
 20 45  1  0
 20 46  1  0
 21 47  1  0
 21 48  1  0
 22 49  1  0
 22 50  1  0
 23 51  1  0
 23 52  1  0
 24 53  1  0
 25 54  1  0
 25 55  1  0
 25 56  1  0
M  END
> <Name>
11

> <Experimental_pIC50>
7.58

> <original_article_set>
training

$$$$
13
  SciTegic08162114073D

 50 54  0  0  0  0            999 V2000
   11.6695    1.7762   -2.2471 C   0  0
   10.2924    1.9977   -2.2538 C   0  0
   12.2047    0.6903   -2.9400 C   0  0
    1.8786   -1.0483   -0.1128 C   0  0
    2.8849   -1.6400    2.0025 C   0  0
    9.4504    1.1331   -2.9533 C   0  0
   11.3627   -0.1743   -3.6394 C   0  0
    2.4305   -4.8016    0.5476 C   0  0
    0.8000   -0.4750    0.5607 C   0  0
    1.8063   -1.0666    2.6760 C   0  0
    1.7730   -5.7710    1.3049 C   0  0
    3.7973   -6.1594    2.5652 C   0  0
    2.9210   -1.6309    0.6081 C   0  0
    9.9855    0.0471   -3.6461 C   0  0
    4.9367   -1.6582   -0.9572 C   0  0
    3.7715   -4.5112    0.7990 C   0  0
    0.7638   -0.4841    1.9551 C   0  0
    2.4564   -6.4499    2.3137 C   0  0
    4.4549   -5.1901    1.8078 C   0  0
    5.7949   -2.7158   -1.3131 C   0  0
    4.0369   -2.2241   -0.0873 C   0  0
    6.9424   -2.6270   -2.2366 C   0  0
    8.3863   -1.9004   -3.5794 C   0  0
    4.9877   -0.2562   -1.4139 C   0  0
    9.0655   -0.8987   -4.4108 C   0  0
    5.4696   -3.8664   -0.7179 N   0  0
    7.7083   -3.6517   -2.5302 N   0  0
    8.6582   -3.1736   -3.4135 N   0  0
    4.3970   -3.5351    0.0209 N   0  0
    7.3087   -1.4761   -2.8642 O   0  0
   -0.5656    0.2251    2.7864 Cl  0  0
    1.6442   -7.6456    3.2478 Cl  0  0
    6.1170   -4.8661    2.1572 Cl  0  0
   12.3252    2.4503   -1.7036 H   0  0
    9.8756    2.8438   -1.7153 H   0  0
   13.2770    0.5182   -2.9359 H   0  0
    1.8924   -1.0334   -1.1999 H   0  0
    3.6902   -2.0901    2.5785 H   0  0
    8.3786    1.3133   -2.9527 H   0  0
   11.7886   -1.0179   -4.1762 H   0  0
    1.8839   -4.2809   -0.2353 H   0  0
   -0.0056   -0.0249   -0.0142 H   0  0
    1.7910   -1.0815    3.7627 H   0  0
    0.7279   -5.9869    1.0979 H   0  0
    4.3282   -6.6904    3.3525 H   0  0
    4.3852   -0.1126   -2.3260 H   0  0
    4.6084    0.4430   -0.6488 H   0  0
    6.0182    0.0691   -1.6389 H   0  0
    8.3390   -0.2779   -4.9805 H   0  0
    9.6641   -1.3746   -5.2189 H   0  0
  1  2  2  0
  1  3  1  0
  2  6  1  0
  3  7  2  0
  4  9  1  0
  4 13  2  0
  5 10  2  0
  5 13  1  0
  6 14  2  0
  7 14  1  0
  8 11  1  0
  8 16  2  0
  9 17  2  0
 10 17  1  0
 11 18  2  0
 12 18  1  0
 12 19  2  0
 13 21  1  0
 14 25  1  0
 15 20  1  0
 15 21  2  0
 15 24  1  0
 16 19  1  0
 16 29  1  0
 17 31  1  0
 18 32  1  0
 19 33  1  0
 20 22  1  0
 20 26  2  0
 21 29  1  0
 22 27  2  0
 22 30  1  0
 23 25  1  0
 23 28  2  0
 23 30  1  0
 26 29  1  0
 27 28  1  0
  1 34  1  0
  2 35  1  0
  3 36  1  0
  4 37  1  0
  5 38  1  0
  6 39  1  0
  7 40  1  0
  8 41  1  0
  9 42  1  0
 10 43  1  0
 11 44  1  0
 12 45  1  0
 24 46  1  0
 24 47  1  0
 24 48  1  0
 25 49  1  0
 25 50  1  0
M  END
> <Name>
13

> <Experimental_pIC50>
7.72

> <original_article_set>
training

$$$$
12
  SciTegic08162114073D

 56 60  0  0  0  0            999 V2000
    5.8507  -10.1486   -7.5729 C   0  0
    4.6795  -11.8971   -6.3863 C   0  0
    7.1451  -11.0104   -4.0483 C   0  0
    6.1916  -11.0569   -8.5750 C   0  0
    5.0204  -12.8055   -7.3885 C   0  0
    7.9249  -12.0365   -3.5149 C   0  0
    6.1167  -12.6388   -2.0301 C   0  0
    5.0947  -10.5687   -6.4785 C   0  0
    4.0142   -8.4641   -5.5112 C   0  0
    5.8511  -10.7983   -3.5725 C   0  0
    5.7764  -12.3853   -8.4829 C   0  0
    7.4107  -12.8508   -2.5058 C   0  0
    5.3369  -11.6126   -2.5635 C   0  0
    3.9967   -7.9773   -4.1904 C   0  0
    4.7406   -9.6275   -5.4388 C   0  0
    3.3382   -6.7381   -3.7319 C   0  0
    2.2495   -4.9412   -3.6903 C   0  0
   -2.9062   -3.7582   -4.6568 C   0  0
   -2.2519   -2.7270   -3.7428 C   0  0
   -2.2032   -5.1094   -4.5719 C   0  0
   -0.7557   -2.5979   -4.0193 C   0  0
   -0.7069   -4.9845   -4.8496 C   0  0
   -0.0433   -3.9541   -3.9260 C   0  0
    3.3941   -7.8629   -6.7073 C   0  0
    1.4404   -3.8080   -4.2586 C   0  0
    4.6593   -8.7670   -3.3410 N   0  0
    3.3568   -6.3353   -2.4828 N   0  0
    2.6404   -5.1532   -2.4555 N   0  0
    5.0999   -9.7618   -4.1299 N   0  0
    2.6533   -5.9050   -4.5624 O   0  0
    6.1949  -13.5059   -9.7201 Cl  0  0
    8.3734  -14.1168   -1.8485 Cl  0  0
    3.7395  -11.3895   -1.9404 Cl  0  0
    6.1817   -9.1164   -7.6589 H   0  0
    4.0894  -12.2396   -5.5394 H   0  0
    7.5602  -10.3843   -4.8347 H   0  0
    6.7817  -10.7155   -9.4220 H   0  0
    4.6906  -13.8376   -7.3033 H   0  0
    8.9316  -12.1902   -3.8955 H   0  0
    5.7179  -13.2751   -1.2429 H   0  0
   -3.9617   -3.8741   -4.3857 H   0  0
   -2.8785   -3.3973   -5.6923 H   0  0
   -2.7374   -1.7539   -3.8791 H   0  0
   -2.4056   -3.0166   -2.6960 H   0  0
   -2.3543   -5.5378   -3.5734 H   0  0
   -2.6547   -5.8046   -5.2889 H   0  0
   -0.6100   -2.1676   -5.0185 H   0  0
   -0.3149   -1.8936   -3.3037 H   0  0
   -0.2318   -5.9643   -4.7199 H   0  0
   -0.5583   -4.6963   -5.8983 H   0  0
   -0.1231   -4.3157   -2.8921 H   0  0
    4.0906   -7.1737   -7.2128 H   0  0
    3.0862   -8.6262   -7.4426 H   0  0
    2.4813   -7.2940   -6.4593 H   0  0
    1.8084   -2.8537   -3.8689 H   0  0
    1.5674   -3.7661   -5.3451 H   0  0
  1  4  1  0
  1  8  2  0
  2  5  2  0
  2  8  1  0
  3  6  1  0
  3 10  2  0
  4 11  2  0
  5 11  1  0
  6 12  2  0
  7 12  1  0
  7 13  2  0
  8 15  1  0
  9 14  1  0
  9 15  2  0
  9 24  1  0
 10 13  1  0
 10 29  1  0
 11 31  1  0
 12 32  1  0
 13 33  1  0
 14 16  1  0
 14 26  2  0
 15 29  1  0
 16 27  2  0
 16 30  1  0
 17 25  1  0
 17 28  2  0
 17 30  1  0
 18 19  1  0
 18 20  1  0
 19 21  1  0
 20 22  1  0
 21 23  1  0
 22 23  1  0
 23 25  1  0
 26 29  1  0
 27 28  1  0
  1 34  1  0
  2 35  1  0
  3 36  1  0
  4 37  1  0
  5 38  1  0
  6 39  1  0
  7 40  1  0
 18 41  1  0
 18 42  1  0
 19 43  1  0
 19 44  1  0
 20 45  1  0
 20 46  1  0
 21 47  1  0
 21 48  1  0
 22 49  1  0
 22 50  1  0
 23 51  1  0
 24 52  1  0
 24 53  1  0
 24 54  1  0
 25 55  1  0
 25 56  1  0
M  END
> <Name>
12

> <Experimental_pIC50>
7.64

> <original_article_set>
training

$$$$
14
  SciTegic08162114073D

 53 57  0  0  1  0            999 V2000
   10.8809    2.3285   -2.1554 C   0  0
   11.5303    1.0984   -2.2580 C   0  0
    9.6476    2.5203   -2.7781 C   0  0
    1.8786   -1.0483   -0.1128 C   0  0
    2.8849   -1.6400    2.0025 C   0  0
   10.9464    0.0599   -2.9835 C   0  0
    9.0637    1.4818   -3.5036 C   0  0
    2.4305   -4.8016    0.5476 C   0  0
    0.8000   -0.4750    0.5607 C   0  0
    1.8063   -1.0666    2.6760 C   0  0
    1.7730   -5.7710    1.3049 C   0  0
    3.7973   -6.1594    2.5652 C   0  0
    2.9210   -1.6309    0.6081 C   0  0
    9.7131    0.2516   -3.6063 C   0  0
    4.9367   -1.6582   -0.9572 C   0  0
    3.7715   -4.5112    0.7990 C   0  0
    0.7638   -0.4841    1.9551 C   0  0
    2.4564   -6.4499    2.3137 C   0  0
    4.4549   -5.1901    1.8078 C   0  0
    5.7949   -2.7158   -1.3131 C   0  0
    4.0369   -2.2241   -0.0873 C   0  0
    6.9424   -2.6270   -2.2366 C   0  0
    8.3863   -1.9004   -3.5794 C   0  0
    4.9877   -0.2562   -1.4139 C   0  0
    8.1813   -0.3776   -5.5829 C   0  0
    9.0655   -0.8987   -4.4108 C   0  0  1  0  0  0
    5.4696   -3.8664   -0.7179 N   0  0
    7.7083   -3.6517   -2.5302 N   0  0
    8.6582   -3.1736   -3.4135 N   0  0
    4.3970   -3.5351    0.0209 N   0  0
    7.3087   -1.4761   -2.8642 O   0  0
   -0.5656    0.2251    2.7864 Cl  0  0
    1.6442   -7.6456    3.2478 Cl  0  0
    6.1170   -4.8661    2.1572 Cl  0  0
   11.3351    3.1366   -1.5893 H   0  0
   12.4901    0.9485   -1.7723 H   0  0
    9.1412    3.4776   -2.6975 H   0  0
    1.8924   -1.0334   -1.1999 H   0  0
    3.6902   -2.0901    2.5785 H   0  0
   11.4597   -0.8951   -3.0583 H   0  0
    8.1026    1.6404   -3.9856 H   0  0
    1.8839   -4.2809   -0.2353 H   0  0
   -0.0056   -0.0249   -0.0142 H   0  0
    1.7910   -1.0815    3.7627 H   0  0
    0.7279   -5.9869    1.0979 H   0  0
    4.3282   -6.6904    3.3525 H   0  0
    4.3852   -0.1126   -2.3260 H   0  0
    4.6084    0.4430   -0.6488 H   0  0
    6.0182    0.0691   -1.6389 H   0  0
    7.2808    0.0986   -5.1778 H   0  0
    7.8608   -1.1765   -6.2610 H   0  0
    8.7028    0.3785   -6.1794 H   0  0
    9.9325   -1.3519   -4.9560 H   0  0
  1  2  2  0
  1  3  1  0
  2  6  1  0
  3  7  2  0
  4  9  1  0
  4 13  2  0
  5 10  2  0
  5 13  1  0
  6 14  2  0
  7 14  1  0
  8 11  1  0
  8 16  2  0
  9 17  2  0
 10 17  1  0
 11 18  2  0
 12 18  1  0
 12 19  2  0
 13 21  1  0
 14 26  1  0
 15 20  1  0
 15 21  2  0
 15 24  1  0
 16 19  1  0
 16 30  1  0
 17 32  1  0
 18 33  1  0
 19 34  1  0
 20 22  1  0
 20 27  2  0
 21 30  1  0
 22 28  2  0
 22 31  1  0
 23 26  1  0
 23 29  2  0
 23 31  1  0
 25 26  1  0
 27 30  1  0
 28 29  1  0
  1 35  1  0
  2 36  1  0
  3 37  1  0
  4 38  1  0
  5 39  1  0
  6 40  1  0
  7 41  1  0
  8 42  1  0
  9 43  1  0
 10 44  1  0
 11 45  1  0
 12 46  1  0
 24 47  1  0
 24 48  1  0
 24 49  1  0
 25 50  1  0
 25 51  1  0
 25 52  1  0
 26 53  1  0
M  END
> <Name>
14

> <Experimental_pIC50>
7.96

> <original_article_set>
training

$$$$
15
  SciTegic08162114073D

 56 60  0  0  0  0            999 V2000
    6.4630    0.8858   -7.4459 C   0  0
    6.6947   -0.4897   -7.4476 C   0  0
    7.0605    1.6926   -6.4776 C   0  0
    1.8786   -1.0483   -0.1128 C   0  0
    2.8849   -1.6400    2.0025 C   0  0
    7.5238   -1.0584   -6.4807 C   0  0
    7.8897    1.1238   -5.5108 C   0  0
    2.4305   -4.8016    0.5476 C   0  0
    0.8000   -0.4750    0.5607 C   0  0
    1.8063   -1.0666    2.6760 C   0  0
    1.7730   -5.7710    1.3049 C   0  0
    3.7973   -6.1594    2.5652 C   0  0
    2.9210   -1.6309    0.6081 C   0  0
    8.1213   -0.2517   -5.5123 C   0  0
    4.9367   -1.6582   -0.9572 C   0  0
    3.7715   -4.5112    0.7990 C   0  0
    0.7638   -0.4841    1.9551 C   0  0
    2.4564   -6.4499    2.3137 C   0  0
    4.4549   -5.1901    1.8078 C   0  0
    5.7949   -2.7158   -1.3131 C   0  0
    4.0369   -2.2241   -0.0873 C   0  0
    6.9424   -2.6270   -2.2366 C   0  0
    8.3863   -1.9004   -3.5794 C   0  0
    4.9877   -0.2562   -1.4139 C   0  0
    9.6901    0.2332   -3.5008 C   0  0
   10.3217   -1.4103   -5.2396 C   0  0
    9.0655   -0.8987   -4.4108 C   0  0
    5.4696   -3.8664   -0.7179 N   0  0
    7.7083   -3.6517   -2.5302 N   0  0
    8.6582   -3.1736   -3.4135 N   0  0
    4.3970   -3.5351    0.0209 N   0  0
    7.3087   -1.4761   -2.8642 O   0  0
   -0.5656    0.2251    2.7864 Cl  0  0
    1.6442   -7.6456    3.2478 Cl  0  0
    6.1170   -4.8661    2.1572 Cl  0  0
    5.8184    1.3286   -8.1996 H   0  0
    6.2304   -1.1179   -8.2021 H   0  0
    6.8813    2.7636   -6.4767 H   0  0
    1.8924   -1.0334   -1.1999 H   0  0
    3.6902   -2.0901    2.5785 H   0  0
    7.6984   -2.1311   -6.4896 H   0  0
    8.3509    1.7602   -4.7601 H   0  0
    1.8839   -4.2809   -0.2353 H   0  0
   -0.0056   -0.0249   -0.0142 H   0  0
    1.7910   -1.0815    3.7627 H   0  0
    0.7279   -5.9869    1.0979 H   0  0
    4.3282   -6.6904    3.3525 H   0  0
    4.3852   -0.1126   -2.3260 H   0  0
    4.6084    0.4430   -0.6488 H   0  0
    6.0182    0.0691   -1.6389 H   0  0
   10.3580   -0.1303   -2.7106 H   0  0
   10.2521    0.9557   -4.1043 H   0  0
    8.8812    0.7885   -3.0092 H   0  0
   11.0909   -1.8944   -4.6249 H   0  0
   10.0077   -2.1391   -5.9962 H   0  0
   10.8081   -0.5782   -5.7619 H   0  0
  1  2  2  0
  1  3  1  0
  2  6  1  0
  3  7  2  0
  4  9  1  0
  4 13  2  0
  5 10  2  0
  5 13  1  0
  6 14  2  0
  7 14  1  0
  8 11  1  0
  8 16  2  0
  9 17  2  0
 10 17  1  0
 11 18  2  0
 12 18  1  0
 12 19  2  0
 13 21  1  0
 14 27  1  0
 15 20  1  0
 15 21  2  0
 15 24  1  0
 16 19  1  0
 16 31  1  0
 17 33  1  0
 18 34  1  0
 19 35  1  0
 20 22  1  0
 20 28  2  0
 21 31  1  0
 22 29  2  0
 22 32  1  0
 23 27  1  0
 23 30  2  0
 23 32  1  0
 25 27  1  0
 26 27  1  0
 28 31  1  0
 29 30  1  0
  1 36  1  0
  2 37  1  0
  3 38  1  0
  4 39  1  0
  5 40  1  0
  6 41  1  0
  7 42  1  0
  8 43  1  0
  9 44  1  0
 10 45  1  0
 11 46  1  0
 12 47  1  0
 24 48  1  0
 24 49  1  0
 24 50  1  0
 25 51  1  0
 25 52  1  0
 25 53  1  0
 26 54  1  0
 26 55  1  0
 26 56  1  0
M  END
> <Name>
15

> <Experimental_pIC50>
8.07

> <original_article_set>
training

$$$$
18
  SciTegic08162114073D

 44 48  0  0  0  0            999 V2000
    9.9332    0.6988   -5.5632 C   0  0
    1.8786   -1.0483   -0.1128 C   0  0
    2.8849   -1.6400    2.0025 C   0  0
    2.4305   -4.8016    0.5476 C   0  0
    0.8000   -0.4750    0.5607 C   0  0
    1.8063   -1.0666    2.6760 C   0  0
    1.7730   -5.7710    1.3049 C   0  0
    8.9259    0.2934   -4.6555 C   0  0
    3.7973   -6.1594    2.5652 C   0  0
   10.6891   -0.4213   -5.8202 C   0  0
    2.9210   -1.6309    0.6081 C   0  0
    4.9367   -1.6582   -0.9572 C   0  0
    3.7715   -4.5112    0.7990 C   0  0
    0.7638   -0.4841    1.9551 C   0  0
    2.4564   -6.4499    2.3137 C   0  0
    4.4549   -5.1901    1.8078 C   0  0
    5.7949   -2.7158   -1.3131 C   0  0
    4.0369   -2.2241   -0.0873 C   0  0
    9.1378   -1.0456   -4.4227 C   0  0
    6.9424   -2.6270   -2.2366 C   0  0
    8.3854   -1.8996   -3.5799 C   0  0
    4.9877   -0.2562   -1.4139 C   0  0
    5.4696   -3.8664   -0.7179 N   0  0
    7.7086   -3.6514   -2.5306 N   0  0
    8.6580   -3.1728   -3.4142 N   0  0
    4.3970   -3.5351    0.0209 N   0  0
   10.2107   -1.4889   -5.1289 O   0  0
    7.3080   -1.4759   -2.8642 O   0  0
   -0.5656    0.2251    2.7864 Cl  0  0
    1.6442   -7.6456    3.2478 Cl  0  0
    6.1170   -4.8661    2.1572 Cl  0  0
   10.0886    1.6842   -5.9779 H   0  0
    1.8924   -1.0334   -1.1999 H   0  0
    3.6902   -2.0901    2.5785 H   0  0
    1.8839   -4.2809   -0.2353 H   0  0
   -0.0056   -0.0249   -0.0142 H   0  0
    1.7910   -1.0815    3.7627 H   0  0
    0.7279   -5.9869    1.0979 H   0  0
    8.1457    0.9085   -4.2285 H   0  0
    4.3282   -6.6904    3.3525 H   0  0
   11.5537   -0.6148   -6.4381 H   0  0
    4.3852   -0.1126   -2.3260 H   0  0
    4.6084    0.4430   -0.6488 H   0  0
    6.0182    0.0691   -1.6389 H   0  0
  1  8  1  0
  1 10  2  0
  2  5  1  0
  2 11  2  0
  3  6  2  0
  3 11  1  0
  4  7  1  0
  4 13  2  0
  5 14  2  0
  6 14  1  0
  7 15  2  0
  8 19  2  0
  9 15  1  0
  9 16  2  0
 10 27  1  0
 11 18  1  0
 12 17  1  0
 12 18  2  0
 12 22  1  0
 13 16  1  0
 13 26  1  0
 14 29  1  0
 15 30  1  0
 16 31  1  0
 17 20  1  0
 17 23  2  0
 18 26  1  0
 19 21  1  0
 19 27  1  0
 20 24  2  0
 20 28  1  0
 21 25  2  0
 21 28  1  0
 23 26  1  0
 24 25  1  0
  1 32  1  0
  2 33  1  0
  3 34  1  0
  4 35  1  0
  5 36  1  0
  6 37  1  0
  7 38  1  0
  8 39  1  0
  9 40  1  0
 10 41  1  0
 22 42  1  0
 22 43  1  0
 22 44  1  0
M  END
> <Name>
18

> <Experimental_pIC50>
6.95

> <original_article_set>
training

$$$$
16
  SciTegic08162114073D

 54 59  0  0  0  0            999 V2000
   12.4817    0.9783   -2.5749 C   0  0
   12.6679   -0.2670   -3.1750 C   0  0
   11.2255    1.5841   -2.6009 C   0  0
    1.8786   -1.0483   -0.1128 C   0  0
    2.8849   -1.6400    2.0025 C   0  0
   11.5980   -0.9065   -3.8012 C   0  0
   10.1556    0.9447   -3.2270 C   0  0
    2.4305   -4.8016    0.5476 C   0  0
    0.8000   -0.4750    0.5607 C   0  0
    1.8063   -1.0666    2.6760 C   0  0
    1.7730   -5.7710    1.3049 C   0  0
    3.7973   -6.1594    2.5652 C   0  0
    2.9210   -1.6309    0.6081 C   0  0
   10.3418   -0.3006   -3.8272 C   0  0
    4.9367   -1.6582   -0.9572 C   0  0
    3.7715   -4.5112    0.7990 C   0  0
    0.7638   -0.4841    1.9551 C   0  0
    2.4564   -6.4499    2.3137 C   0  0
    4.4549   -5.1901    1.8078 C   0  0
    5.7949   -2.7158   -1.3131 C   0  0
    4.0369   -2.2241   -0.0873 C   0  0
    6.9424   -2.6270   -2.2366 C   0  0
    8.3854   -1.9010   -3.5807 C   0  0
    8.4568   -0.2394   -5.6092 C   0  0
    9.3485   -1.3809   -5.9663 C   0  0
    9.2031   -0.9801   -4.4943 C   0  0
    4.9877   -0.2562   -1.4139 C   0  0
    5.4696   -3.8664   -0.7179 N   0  0
    7.7082   -3.6518   -2.5301 N   0  0
    8.6575   -3.1742   -3.4142 N   0  0
    4.3970   -3.5351    0.0209 N   0  0
    7.3083   -1.4764   -2.8650 O   0  0
   -0.5656    0.2251    2.7864 Cl  0  0
    1.6442   -7.6456    3.2478 Cl  0  0
    6.1170   -4.8661    2.1572 Cl  0  0
   13.3147    1.4760   -2.0872 H   0  0
   13.6460   -0.7391   -3.1549 H   0  0
   11.0808    2.5540   -2.1336 H   0  0
    1.8924   -1.0334   -1.1999 H   0  0
    3.6902   -2.0901    2.5785 H   0  0
   11.7533   -1.8762   -4.2665 H   0  0
    9.1810    1.4258   -3.2422 H   0  0
    1.8839   -4.2809   -0.2353 H   0  0
   -0.0056   -0.0249   -0.0142 H   0  0
    1.7910   -1.0815    3.7627 H   0  0
    0.7279   -5.9869    1.0979 H   0  0
    4.3282   -6.6904    3.3525 H   0  0
    8.7826    0.7575   -5.8832 H   0  0
    7.3871   -0.3903   -5.6981 H   0  0
    8.8806   -2.3020   -6.2953 H   0  0
   10.2748   -1.1536   -6.4819 H   0  0
    4.3852   -0.1126   -2.3260 H   0  0
    4.6084    0.4430   -0.6488 H   0  0
    6.0182    0.0691   -1.6389 H   0  0
  1  2  2  0
  1  3  1  0
  2  6  1  0
  3  7  2  0
  4  9  1  0
  4 13  2  0
  5 10  2  0
  5 13  1  0
  6 14  2  0
  7 14  1  0
  8 11  1  0
  8 16  2  0
  9 17  2  0
 10 17  1  0
 11 18  2  0
 12 18  1  0
 12 19  2  0
 13 21  1  0
 14 26  1  0
 15 20  1  0
 15 21  2  0
 15 27  1  0
 16 19  1  0
 16 31  1  0
 17 33  1  0
 18 34  1  0
 19 35  1  0
 20 22  1  0
 20 28  2  0
 21 31  1  0
 22 29  2  0
 22 32  1  0
 23 26  1  0
 23 30  2  0
 23 32  1  0
 24 25  1  0
 24 26  1  0
 25 26  1  0
 28 31  1  0
 29 30  1  0
  1 36  1  0
  2 37  1  0
  3 38  1  0
  4 39  1  0
  5 40  1  0
  6 41  1  0
  7 42  1  0
  8 43  1  0
  9 44  1  0
 10 45  1  0
 11 46  1  0
 12 47  1  0
 24 48  1  0
 24 49  1  0
 25 50  1  0
 25 51  1  0
 27 52  1  0
 27 53  1  0
 27 54  1  0
M  END
> <Name>
16

> <Experimental_pIC50>
7.96

> <original_article_set>
training

$$$$
2
  SciTegic08162114073D

 49 52  0  0  0  0            999 V2000
    5.3915    6.9572   -8.5529 C   0  0
    6.7518    5.0332   -9.0868 C   0  0
    7.5148    5.4950   -5.6903 C   0  0
    6.0922    7.7133   -9.4925 C   0  0
    7.4524    5.7894  -10.0265 C   0  0
    8.8624    5.5628   -5.3369 C   0  0
    9.0248    3.1574   -5.4941 C   0  0
    5.7214    5.6171   -8.3500 C   0  0
    3.6581    4.5272   -7.3074 C   0  0
    6.9221    4.2583   -5.9455 C   0  0
    7.1226    7.1294  -10.2294 C   0  0
    9.6174    4.3941   -5.2388 C   0  0
    7.6771    3.0895   -5.8474 C   0  0
    3.5361    3.7367   -6.1489 C   0  0
    4.9955    4.8321   -7.3758 C   0  0
    2.2856    3.1504   -5.6273 C   0  0
    0.2698    2.6049   -5.3929 C   0  0
    2.5920    4.9390   -8.2404 C   0  0
   -4.1142    5.0739   -5.3025 C   0  0
   -1.1965    2.5551   -5.7413 C   0  0
   -3.3978    3.7930   -5.6994 C   0  0
   -1.9052    3.8626   -5.3768 C   0  0
    4.7031    3.5509   -5.5263 N   0  0
    2.2352    2.4197   -4.5381 N   0  0
    0.9091    2.0607   -4.3841 N   0  0
    5.5710    4.2289   -6.2964 N   0  0
    1.0758    3.3145   -6.2292 O   0  0
    7.9857    8.0613  -11.3905 Cl  0  0
   11.2802    4.4788   -4.8030 Cl  0  0
    6.9882    1.5335   -6.1536 Cl  0  0
    4.5909    7.4264   -7.9863 H   0  0
    7.0205    3.9896   -8.9401 H   0  0
    6.9397    6.4151   -5.7626 H   0  0
    5.8245    8.7567   -9.6398 H   0  0
    8.2534    5.3215  -10.5931 H   0  0
    9.3111    6.5335   -5.1409 H   0  0
    9.6158    2.2472   -5.4168 H   0  0
    2.1409    5.8966   -7.9318 H   0  0
    2.9679    5.0630   -9.2707 H   0  0
    1.7821    4.1915   -8.3003 H   0  0
   -3.9926    5.2763   -4.2336 H   0  0
   -5.1849    5.0083   -5.5206 H   0  0
   -3.7058    5.9244   -5.8576 H   0  0
   -1.3159    2.3539   -6.8137 H   0  0
   -1.6734    1.7157   -5.2188 H   0  0
   -3.5390    3.6202   -6.7727 H   0  0
   -3.8541    2.9476   -5.1713 H   0  0
   -1.4504    4.6982   -5.9240 H   0  0
   -1.7701    4.0746   -4.3085 H   0  0
  1  4  1  0
  1  8  2  0
  2  5  2  0
  2  8  1  0
  3  6  1  0
  3 10  2  0
  4 11  2  0
  5 11  1  0
  6 12  2  0
  7 12  1  0
  7 13  2  0
  8 15  1  0
  9 14  1  0
  9 15  2  0
  9 18  1  0
 10 13  1  0
 10 26  1  0
 11 28  1  0
 12 29  1  0
 13 30  1  0
 14 16  1  0
 14 23  2  0
 15 26  1  0
 16 24  2  0
 16 27  1  0
 17 20  1  0
 17 25  2  0
 17 27  1  0
 19 21  1  0
 20 22  1  0
 21 22  1  0
 23 26  1  0
 24 25  1  0
  1 31  1  0
  2 32  1  0
  3 33  1  0
  4 34  1  0
  5 35  1  0
  6 36  1  0
  7 37  1  0
 18 38  1  0
 18 39  1  0
 18 40  1  0
 19 41  1  0
 19 42  1  0
 19 43  1  0
 20 44  1  0
 20 45  1  0
 21 46  1  0
 21 47  1  0
 22 48  1  0
 22 49  1  0
M  END
> <Name>
2

> <Experimental_pIC50>
7.46

> <original_article_set>
training

$$$$
19
  SciTegic08162114073D

 44 48  0  0  0  0            999 V2000
   10.7449   -0.2650   -5.9093 C   0  0
    1.8786   -1.0483   -0.1128 C   0  0
    2.8849   -1.6400    2.0025 C   0  0
    2.4305   -4.8016    0.5476 C   0  0
    0.8000   -0.4750    0.5607 C   0  0
    1.8063   -1.0666    2.6760 C   0  0
    1.7730   -5.7710    1.3049 C   0  0
   10.2369   -1.3804   -5.1828 C   0  0
    3.7973   -6.1594    2.5652 C   0  0
   10.0147    0.8798   -5.6771 C   0  0
    2.9210   -1.6309    0.6081 C   0  0
    4.9367   -1.6582   -0.9572 C   0  0
    3.7715   -4.5112    0.7990 C   0  0
    0.7638   -0.4841    1.9551 C   0  0
    2.4564   -6.4499    2.3137 C   0  0
    4.4549   -5.1901    1.8078 C   0  0
    5.7949   -2.7158   -1.3131 C   0  0
    4.0369   -2.2241   -0.0873 C   0  0
    9.1378   -1.0456   -4.4227 C   0  0
    6.9424   -2.6270   -2.2366 C   0  0
    8.3854   -1.8996   -3.5799 C   0  0
    4.9877   -0.2562   -1.4139 C   0  0
    5.4696   -3.8664   -0.7179 N   0  0
    7.7086   -3.6514   -2.5306 N   0  0
    8.6580   -3.1728   -3.4142 N   0  0
    4.3970   -3.5351    0.0209 N   0  0
    7.3080   -1.4759   -2.8642 O   0  0
    8.7225    0.6075   -4.5869 S   0  0
   -0.5656    0.2251    2.7864 Cl  0  0
    1.6442   -7.6456    3.2478 Cl  0  0
    6.1170   -4.8661    2.1572 Cl  0  0
   11.6028   -0.3001   -6.5681 H   0  0
    1.8924   -1.0334   -1.1999 H   0  0
    3.6902   -2.0901    2.5785 H   0  0
    1.8839   -4.2809   -0.2353 H   0  0
   -0.0056   -0.0249   -0.0142 H   0  0
    1.7910   -1.0815    3.7627 H   0  0
    0.7279   -5.9869    1.0979 H   0  0
   10.6642   -2.3749   -5.2209 H   0  0
    4.3282   -6.6904    3.3525 H   0  0
   10.1781    1.8627   -6.0956 H   0  0
    4.3852   -0.1126   -2.3260 H   0  0
    4.6084    0.4430   -0.6488 H   0  0
    6.0182    0.0691   -1.6389 H   0  0
  1  8  1  0
  1 10  2  0
  2  5  1  0
  2 11  2  0
  3  6  2  0
  3 11  1  0
  4  7  1  0
  4 13  2  0
  5 14  2  0
  6 14  1  0
  7 15  2  0
  8 19  2  0
  9 15  1  0
  9 16  2  0
 10 28  1  0
 11 18  1  0
 12 17  1  0
 12 18  2  0
 12 22  1  0
 13 16  1  0
 13 26  1  0
 14 29  1  0
 15 30  1  0
 16 31  1  0
 17 20  1  0
 17 23  2  0
 18 26  1  0
 19 21  1  0
 19 28  1  0
 20 24  2  0
 20 27  1  0
 21 25  2  0
 21 27  1  0
 23 26  1  0
 24 25  1  0
  1 32  1  0
  2 33  1  0
  3 34  1  0
  4 35  1  0
  5 36  1  0
  6 37  1  0
  7 38  1  0
  8 39  1  0
  9 40  1  0
 10 41  1  0
 22 42  1  0
 22 43  1  0
 22 44  1  0
M  END
> <Name>
19

> <Experimental_pIC50>
7.02

> <original_article_set>
training

$$$$
17
  SciTegic08162114073D

 54 59  0  0  0  0            999 V2000
    1.8786   -1.0483   -0.1128 C   0  0
    2.8849   -1.6400    2.0025 C   0  0
   11.5978   -0.9070   -3.8015 C   0  0
   10.1560    0.9441   -3.2257 C   0  0
    2.4305   -4.8016    0.5476 C   0  0
    0.8000   -0.4750    0.5607 C   0  0
    1.8063   -1.0666    2.6760 C   0  0
   12.6678   -0.2687   -3.1745 C   0  0
   11.2260    1.5824   -2.5986 C   0  0
    1.7730   -5.7710    1.3049 C   0  0
    3.7973   -6.1594    2.5652 C   0  0
    2.9210   -1.6309    0.6081 C   0  0
   10.3418   -0.3006   -3.8272 C   0  0
    4.9367   -1.6582   -0.9572 C   0  0
    3.7715   -4.5112    0.7990 C   0  0
    0.7638   -0.4841    1.9551 C   0  0
   12.4819    0.9760   -2.5730 C   0  0
    2.4564   -6.4499    2.3137 C   0  0
    4.4549   -5.1901    1.8078 C   0  0
    5.7949   -2.7158   -1.3131 C   0  0
    4.0369   -2.2241   -0.0873 C   0  0
    6.9424   -2.6270   -2.2366 C   0  0
    8.3854   -1.9010   -3.5807 C   0  0
    8.4568   -0.2394   -5.6092 C   0  0
    9.3485   -1.3809   -5.9663 C   0  0
    9.2031   -0.9801   -4.4943 C   0  0
    4.9877   -0.2562   -1.4139 C   0  0
    5.4696   -3.8664   -0.7179 N   0  0
    7.7082   -3.6518   -2.5301 N   0  0
    8.6575   -3.1742   -3.4142 N   0  0
    4.3970   -3.5351    0.0209 N   0  0
    7.3083   -1.4764   -2.8650 O   0  0
   -0.5656    0.2251    2.7864 Cl  0  0
   13.8022    1.7635   -1.7996 Cl  0  0
    1.6442   -7.6456    3.2478 Cl  0  0
    6.1170   -4.8661    2.1572 Cl  0  0
    1.8924   -1.0334   -1.1999 H   0  0
    3.6902   -2.0901    2.5785 H   0  0
   11.7530   -1.8762   -4.2683 H   0  0
    9.1809    1.4242   -3.2393 H   0  0
    1.8839   -4.2809   -0.2353 H   0  0
   -0.0056   -0.0249   -0.0142 H   0  0
    1.7910   -1.0815    3.7627 H   0  0
   13.6412   -0.7524   -3.1636 H   0  0
   11.0663    2.5516   -2.1330 H   0  0
    0.7279   -5.9869    1.0979 H   0  0
    4.3282   -6.6904    3.3525 H   0  0
    8.7826    0.7575   -5.8832 H   0  0
    7.3871   -0.3903   -5.6981 H   0  0
    8.8806   -2.3020   -6.2953 H   0  0
   10.2748   -1.1536   -6.4819 H   0  0
    4.3852   -0.1126   -2.3260 H   0  0
    4.6084    0.4430   -0.6488 H   0  0
    6.0182    0.0691   -1.6389 H   0  0
  1  6  1  0
  1 12  2  0
  2  7  2  0
  2 12  1  0
  3  8  1  0
  3 13  2  0
  4  9  2  0
  4 13  1  0
  5 10  1  0
  5 15  2  0
  6 16  2  0
  7 16  1  0
  8 17  2  0
  9 17  1  0
 10 18  2  0
 11 18  1  0
 11 19  2  0
 12 21  1  0
 13 26  1  0
 14 20  1  0
 14 21  2  0
 14 27  1  0
 15 19  1  0
 15 31  1  0
 16 33  1  0
 17 34  1  0
 18 35  1  0
 19 36  1  0
 20 22  1  0
 20 28  2  0
 21 31  1  0
 22 29  2  0
 22 32  1  0
 23 26  1  0
 23 30  2  0
 23 32  1  0
 24 25  1  0
 24 26  1  0
 25 26  1  0
 28 31  1  0
 29 30  1  0
  1 37  1  0
  2 38  1  0
  3 39  1  0
  4 40  1  0
  5 41  1  0
  6 42  1  0
  7 43  1  0
  8 44  1  0
  9 45  1  0
 10 46  1  0
 11 47  1  0
 24 48  1  0
 24 49  1  0
 25 50  1  0
 25 51  1  0
 27 52  1  0
 27 53  1  0
 27 54  1  0
M  END
> <Name>
17

> <Experimental_pIC50>
8.06

> <original_article_set>
training

$$$$
20
  SciTegic08162114073D

 46 50  0  0  0  0            999 V2000
    1.8786   -1.0483   -0.1128 C   0  0
    2.8849   -1.6400    2.0025 C   0  0
    2.4305   -4.8016    0.5476 C   0  0
    0.8000   -0.4750    0.5607 C   0  0
    1.8063   -1.0666    2.6760 C   0  0
    1.7730   -5.7710    1.3049 C   0  0
   10.1461   -1.2497   -5.1515 C   0  0
    8.5617    0.3972   -4.4021 C   0  0
    3.7973   -6.1594    2.5652 C   0  0
   10.7391   -0.2546   -5.9119 C   0  0
    9.2257    1.3186   -5.1958 C   0  0
    2.9210   -1.6309    0.6081 C   0  0
    9.0371   -0.9093   -4.3851 C   0  0
    4.9367   -1.6582   -0.9572 C   0  0
    3.7715   -4.5112    0.7990 C   0  0
    0.7638   -0.4841    1.9551 C   0  0
    2.4564   -6.4499    2.3137 C   0  0
    4.4549   -5.1901    1.8078 C   0  0
    5.7949   -2.7158   -1.3131 C   0  0
    4.0369   -2.2241   -0.0873 C   0  0
    8.3862   -1.9018   -3.5802 C   0  0
    6.9424   -2.6270   -2.2366 C   0  0
    4.9877   -0.2562   -1.4139 C   0  0
   10.3060    1.0253   -5.9539 N   0  0
    5.4696   -3.8664   -0.7179 N   0  0
    8.6578   -3.1751   -3.4135 N   0  0
    7.7078   -3.6522   -2.5297 N   0  0
    4.3970   -3.5351    0.0209 N   0  0
    7.3089   -1.4767   -2.8652 O   0  0
   -0.5656    0.2251    2.7864 Cl  0  0
    1.6442   -7.6456    3.2478 Cl  0  0
    6.1170   -4.8661    2.1572 Cl  0  0
    1.8924   -1.0334   -1.1999 H   0  0
    3.6902   -2.0901    2.5785 H   0  0
    1.8839   -4.2809   -0.2353 H   0  0
   -0.0056   -0.0249   -0.0142 H   0  0
    1.7910   -1.0815    3.7627 H   0  0
    0.7279   -5.9869    1.0979 H   0  0
   10.5461   -2.2585   -5.1642 H   0  0
    7.6991    0.7007   -3.8175 H   0  0
    4.3282   -6.6904    3.3525 H   0  0
   11.6068   -0.4686   -6.5273 H   0  0
    8.8947    2.3508   -5.2440 H   0  0
    4.3852   -0.1126   -2.3260 H   0  0
    4.6084    0.4430   -0.6488 H   0  0
    6.0182    0.0691   -1.6389 H   0  0
  1  4  1  0
  1 12  2  0
  2  5  2  0
  2 12  1  0
  3  6  1  0
  3 15  2  0
  4 16  2  0
  5 16  1  0
  6 17  2  0
  7 10  1  0
  7 13  2  0
  8 11  2  0
  8 13  1  0
  9 17  1  0
  9 18  2  0
 10 24  2  0
 11 24  1  0
 12 20  1  0
 13 21  1  0
 14 19  1  0
 14 20  2  0
 14 23  1  0
 15 18  1  0
 15 28  1  0
 16 30  1  0
 17 31  1  0
 18 32  1  0
 19 22  1  0
 19 25  2  0
 20 28  1  0
 21 26  2  0
 21 29  1  0
 22 27  2  0
 22 29  1  0
 25 28  1  0
 26 27  1  0
  1 33  1  0
  2 34  1  0
  3 35  1  0
  4 36  1  0
  5 37  1  0
  6 38  1  0
  7 39  1  0
  8 40  1  0
  9 41  1  0
 10 42  1  0
 11 43  1  0
 23 44  1  0
 23 45  1  0
 23 46  1  0
M  END
> <Name>
20

> <Experimental_pIC50>
6.25

> <original_article_set>
training

$$$$
22
  SciTegic08162114073D

 46 50  0  0  0  0            999 V2000
   10.7574   -0.2452   -5.9290 C   0  0
   10.1474   -1.2289   -5.1587 C   0  0
    1.8786   -1.0483   -0.1128 C   0  0
    2.8849   -1.6400    2.0025 C   0  0
    2.4305   -4.8016    0.5476 C   0  0
    0.8000   -0.4750    0.5607 C   0  0
    1.8063   -1.0666    2.6760 C   0  0
    1.7730   -5.7710    1.3049 C   0  0
    3.7973   -6.1594    2.5652 C   0  0
   10.2229    1.0325   -5.8913 C   0  0
    8.5797    0.3982   -4.4163 C   0  0
    2.9210   -1.6309    0.6081 C   0  0
    9.0371   -0.9093   -4.3851 C   0  0
    4.9367   -1.6582   -0.9572 C   0  0
    3.7715   -4.5112    0.7990 C   0  0
    0.7638   -0.4841    1.9551 C   0  0
    2.4564   -6.4499    2.3137 C   0  0
    4.4549   -5.1901    1.8078 C   0  0
    5.7949   -2.7158   -1.3131 C   0  0
    4.0369   -2.2241   -0.0873 C   0  0
    8.3862   -1.9018   -3.5802 C   0  0
    6.9424   -2.6270   -2.2366 C   0  0
    4.9877   -0.2562   -1.4139 C   0  0
    9.1459    1.3808   -5.1522 N   0  0
    5.4696   -3.8664   -0.7179 N   0  0
    8.6578   -3.1751   -3.4135 N   0  0
    7.7078   -3.6522   -2.5297 N   0  0
    4.3970   -3.5351    0.0209 N   0  0
    7.3089   -1.4767   -2.8652 O   0  0
   -0.5656    0.2251    2.7864 Cl  0  0
    1.6442   -7.6456    3.2478 Cl  0  0
    6.1170   -4.8661    2.1572 Cl  0  0
   11.6239   -0.4714   -6.5398 H   0  0
   10.5482   -2.2394   -5.1715 H   0  0
    1.8924   -1.0334   -1.1999 H   0  0
    3.6902   -2.0901    2.5785 H   0  0
    1.8839   -4.2809   -0.2353 H   0  0
   -0.0056   -0.0249   -0.0142 H   0  0
    1.7910   -1.0815    3.7627 H   0  0
    0.7279   -5.9869    1.0979 H   0  0
    4.3282   -6.6904    3.3525 H   0  0
   10.6620    1.8355   -6.4742 H   0  0
    7.7174    0.7124   -3.8350 H   0  0
    4.3852   -0.1126   -2.3260 H   0  0
    4.6084    0.4430   -0.6488 H   0  0
    6.0182    0.0691   -1.6389 H   0  0
  1  2  2  0
  1 10  1  0
  2 13  1  0
  3  6  1  0
  3 12  2  0
  4  7  2  0
  4 12  1  0
  5  8  1  0
  5 15  2  0
  6 16  2  0
  7 16  1  0
  8 17  2  0
  9 17  1  0
  9 18  2  0
 10 24  2  0
 11 13  2  0
 11 24  1  0
 12 20  1  0
 13 21  1  0
 14 19  1  0
 14 20  2  0
 14 23  1  0
 15 18  1  0
 15 28  1  0
 16 30  1  0
 17 31  1  0
 18 32  1  0
 19 22  1  0
 19 25  2  0
 20 28  1  0
 21 26  2  0
 21 29  1  0
 22 27  2  0
 22 29  1  0
 25 28  1  0
 26 27  1  0
  1 33  1  0
  2 34  1  0
  3 35  1  0
  4 36  1  0
  5 37  1  0
  6 38  1  0
  7 39  1  0
  8 40  1  0
  9 41  1  0
 10 42  1  0
 11 43  1  0
 23 44  1  0
 23 45  1  0
 23 46  1  0
M  END
> <Name>
22

> <Experimental_pIC50>
7.28

> <original_article_set>
training

$$$$
21
  SciTegic08162114073D

 45 49  0  0  0  0            999 V2000
    1.8786   -1.0483   -0.1128 C   0  0
    2.8849   -1.6400    2.0025 C   0  0
    2.4305   -4.8016    0.5476 C   0  0
    0.8000   -0.4750    0.5607 C   0  0
    1.8063   -1.0666    2.6760 C   0  0
    1.7730   -5.7710    1.3049 C   0  0
    3.7973   -6.1594    2.5652 C   0  0
   10.2070    0.9817   -5.8625 C   0  0
    9.1053    1.2664   -5.0862 C   0  0
   10.1384   -1.1941   -5.1620 C   0  0
    2.9210   -1.6309    0.6081 C   0  0
    4.9367   -1.6582   -0.9572 C   0  0
    3.7715   -4.5112    0.7990 C   0  0
    0.7638   -0.4841    1.9551 C   0  0
    2.4564   -6.4499    2.3137 C   0  0
    4.4549   -5.1901    1.8078 C   0  0
    9.0371   -0.9093   -4.3851 C   0  0
    5.7949   -2.7158   -1.3131 C   0  0
    4.0369   -2.2241   -0.0873 C   0  0
    8.3862   -1.9018   -3.5802 C   0  0
    6.9424   -2.6270   -2.2366 C   0  0
    4.9877   -0.2562   -1.4139 C   0  0
   10.7433   -0.2537   -5.9144 N   0  0
    8.5006    0.3260   -4.3335 N   0  0
    5.4696   -3.8664   -0.7179 N   0  0
    8.6578   -3.1751   -3.4135 N   0  0
    7.7078   -3.6522   -2.5297 N   0  0
    4.3970   -3.5351    0.0209 N   0  0
    7.3089   -1.4767   -2.8652 O   0  0
   -0.5656    0.2251    2.7864 Cl  0  0
    1.6442   -7.6456    3.2478 Cl  0  0
    6.1170   -4.8661    2.1572 Cl  0  0
    1.8924   -1.0334   -1.1999 H   0  0
    3.6902   -2.0901    2.5785 H   0  0
    1.8839   -4.2809   -0.2353 H   0  0
   -0.0056   -0.0249   -0.0142 H   0  0
    1.7910   -1.0815    3.7627 H   0  0
    0.7279   -5.9869    1.0979 H   0  0
    4.3282   -6.6904    3.3525 H   0  0
   10.6930    1.7379   -6.4665 H   0  0
    8.6740    2.2592   -5.0463 H   0  0
   10.5778   -2.1841   -5.2120 H   0  0
    4.3852   -0.1126   -2.3260 H   0  0
    4.6084    0.4430   -0.6488 H   0  0
    6.0182    0.0691   -1.6389 H   0  0
  1  4  1  0
  1 11  2  0
  2  5  2  0
  2 11  1  0
  3  6  1  0
  3 13  2  0
  4 14  2  0
  5 14  1  0
  6 15  2  0
  7 15  1  0
  7 16  2  0
  8  9  1  0
  8 23  2  0
  9 24  2  0
 10 17  2  0
 10 23  1  0
 11 19  1  0
 12 18  1  0
 12 19  2  0
 12 22  1  0
 13 16  1  0
 13 28  1  0
 14 30  1  0
 15 31  1  0
 16 32  1  0
 17 20  1  0
 17 24  1  0
 18 21  1  0
 18 25  2  0
 19 28  1  0
 20 26  2  0
 20 29  1  0
 21 27  2  0
 21 29  1  0
 25 28  1  0
 26 27  1  0
  1 33  1  0
  2 34  1  0
  3 35  1  0
  4 36  1  0
  5 37  1  0
  6 38  1  0
  7 39  1  0
  8 40  1  0
  9 41  1  0
 10 42  1  0
 22 43  1  0
 22 44  1  0
 22 45  1  0
M  END
> <Name>
21

> <Experimental_pIC50>
6.71

> <original_article_set>
training

$$$$
23
  SciTegic08162114073D

 52 55  0  0  0  0            999 V2000
   -0.4029   -4.9436    8.0565 C   0  0
    1.5407   -3.5157    8.1999 C   0  0
   -1.0085   -1.3177    9.2030 C   0  0
    0.1490   -5.7914    9.0169 C   0  0
    2.0926   -4.3634    9.1604 C   0  0
   -0.8274   -0.6260   10.4006 C   0  0
    0.6593    0.9172    9.2846 C   0  0
    0.2930   -3.8058    7.6480 C   0  0
   -0.6469   -3.1833    5.3542 C   0  0
   -0.3557   -0.8920    8.0461 C   0  0
    1.3967   -5.5013    9.5689 C   0  0
    0.0065    0.4914   10.4414 C   0  0
    0.4782    0.2254    8.0869 C   0  0
   -1.1380   -1.9531    4.8774 C   0  0
   -0.2784   -2.9261    6.6521 C   0  0
   -1.6626   -1.6961    3.5216 C   0  0
   -2.2693   -1.9410    1.5246 C   0  0
   -1.8944   -5.1830    4.4989 C   0  0
   -2.3738   -1.7257   -0.9831 C   0  0
   -3.9230   -3.3120    0.2084 C   0  0
   -1.5091   -3.8554   -0.0352 C   0  0
   -0.5474   -4.4630    4.6268 C   0  0
   -2.5057   -2.6993    0.2080 C   0  0
   -1.0877   -0.9863    5.7977 N   0  0
   -2.1080   -0.5236    3.1348 N   0  0
   -2.5073   -0.6848    1.8211 N   0  0
   -0.5606   -1.6089    6.8657 N   0  0
   -1.7319   -2.6510    2.5541 O   0  0
    2.0770   -6.5456   10.7555 Cl  0  0
    0.2291    1.3444   11.9195 Cl  0  0
    1.3093    0.7917    6.6804 Cl  0  0
   -1.3764   -5.1832    7.6356 H   0  0
    2.0952   -2.6323    7.8918 H   0  0
   -1.6619   -2.1869    9.1874 H   0  0
   -0.4045   -6.6748    9.3254 H   0  0
    3.0660   -4.1254    9.5814 H   0  0
   -1.3426   -0.9691   11.2943 H   0  0
    1.3093    1.7889    9.3190 H   0  0
   -2.3397   -5.3508    5.4855 H   0  0
   -1.7805   -6.1549    4.0086 H   0  0
   -2.5986   -4.5861    3.9095 H   0  0
   -2.5381   -2.2422   -1.9360 H   0  0
   -3.1012   -0.9080   -0.9328 H   0  0
   -1.3746   -1.2754   -1.0156 H   0  0
   -4.1364   -3.8637   -0.7136 H   0  0
   -4.0491   -4.0161    1.0393 H   0  0
   -4.6889   -2.5342    0.3111 H   0  0
   -1.7181   -4.3641   -0.9841 H   0  0
   -0.4755   -3.4936   -0.0852 H   0  0
   -1.5683   -4.6123    0.7556 H   0  0
   -0.1342   -4.3143    3.6100 H   0  0
    0.1686   -5.1491    5.1203 H   0  0
  1  4  1  0
  1  8  2  0
  2  5  2  0
  2  8  1  0
  3  6  1  0
  3 10  2  0
  4 11  2  0
  5 11  1  0
  6 12  2  0
  7 12  1  0
  7 13  2  0
  8 15  1  0
  9 14  1  0
  9 15  2  0
  9 22  1  0
 10 13  1  0
 10 27  1  0
 11 29  1  0
 12 30  1  0
 13 31  1  0
 14 16  1  0
 14 24  2  0
 15 27  1  0
 16 25  2  0
 16 28  1  0
 17 23  1  0
 17 26  2  0
 17 28  1  0
 18 22  1  0
 19 23  1  0
 20 23  1  0
 21 23  1  0
 24 27  1  0
 25 26  1  0
  1 32  1  0
  2 33  1  0
  3 34  1  0
  4 35  1  0
  5 36  1  0
  6 37  1  0
  7 38  1  0
 18 39  1  0
 18 40  1  0
 18 41  1  0
 19 42  1  0
 19 43  1  0
 19 44  1  0
 20 45  1  0
 20 46  1  0
 20 47  1  0
 21 48  1  0
 21 49  1  0
 21 50  1  0
 22 51  1  0
 22 52  1  0
M  END
> <Name>
23

> <Experimental_pIC50>
8.18

> <original_article_set>
training

$$$$
26
  SciTegic08162114073D

 50 53  0  0  0  0            999 V2000
   -0.4029   -4.9436    8.0565 C   0  0
    1.5407   -3.5157    8.1999 C   0  0
   -1.0085   -1.3177    9.2030 C   0  0
    0.1490   -5.7914    9.0169 C   0  0
    2.0926   -4.3634    9.1604 C   0  0
   -0.8274   -0.6260   10.4006 C   0  0
    0.6593    0.9172    9.2846 C   0  0
    0.2930   -3.8058    7.6480 C   0  0
   -0.6469   -3.1833    5.3542 C   0  0
   -0.3557   -0.8920    8.0461 C   0  0
    1.3967   -5.5013    9.5689 C   0  0
    0.0065    0.4914   10.4414 C   0  0
    0.4782    0.2254    8.0869 C   0  0
   -1.1380   -1.9531    4.8774 C   0  0
   -0.2784   -2.9261    6.6521 C   0  0
   -1.6626   -1.6961    3.5216 C   0  0
   -2.2693   -1.9410    1.5246 C   0  0
   -3.1127   -1.7424   -0.8408 C   0  0
   -3.4814   -3.8711    0.4511 C   0  0
   -1.2206   -3.2965   -0.4089 C   0  0
   -0.5474   -4.4630    4.6268 C   0  0
   -2.5057   -2.6993    0.2080 C   0  0
   -1.0877   -0.9863    5.7977 N   0  0
   -2.1080   -0.5236    3.1348 N   0  0
   -2.5073   -0.6848    1.8211 N   0  0
   -0.5606   -1.6089    6.8657 N   0  0
   -1.7319   -2.6510    2.5541 O   0  0
   -1.8396   -5.0580    4.5062 O   0  0
    2.0770   -6.5456   10.7555 Cl  0  0
    0.2291    1.3444   11.9195 Cl  0  0
    1.3093    0.7917    6.6804 Cl  0  0
   -1.3764   -5.1832    7.6356 H   0  0
    2.0952   -2.6323    7.8918 H   0  0
   -1.6619   -2.1869    9.1874 H   0  0
   -0.4045   -6.6748    9.3254 H   0  0
    3.0660   -4.1254    9.5814 H   0  0
   -1.3426   -0.9691   11.2943 H   0  0
    1.3093    1.7889    9.3190 H   0  0
   -3.2914   -2.2592   -1.7909 H   0  0
   -4.0734   -1.3275   -0.5167 H   0  0
   -2.4410   -0.8992   -1.0408 H   0  0
   -3.6799   -4.4417   -0.4627 H   0  0
   -3.0772   -4.5759    1.1872 H   0  0
   -4.4451   -3.5099    0.8293 H   0  0
   -1.4403   -3.8260   -1.3439 H   0  0
   -0.4866   -2.5173   -0.6455 H   0  0
   -0.7467   -4.0187    0.2661 H   0  0
   -0.1368   -4.3336    3.6096 H   0  0
    0.1127   -5.1817    5.1442 H   0  0
   -1.7143   -5.8891    4.0239 H   0  0
  1  4  1  0
  1  8  2  0
  2  5  2  0
  2  8  1  0
  3  6  1  0
  3 10  2  0
  4 11  2  0
  5 11  1  0
  6 12  2  0
  7 12  1  0
  7 13  2  0
  8 15  1  0
  9 14  1  0
  9 15  2  0
  9 21  1  0
 10 13  1  0
 10 26  1  0
 11 29  1  0
 12 30  1  0
 13 31  1  0
 14 16  1  0
 14 23  2  0
 15 26  1  0
 16 24  2  0
 16 27  1  0
 17 22  1  0
 17 25  2  0
 17 27  1  0
 18 22  1  0
 19 22  1  0
 20 22  1  0
 21 28  1  0
 23 26  1  0
 24 25  1  0
  1 32  1  0
  2 33  1  0
  3 34  1  0
  4 35  1  0
  5 36  1  0
  6 37  1  0
  7 38  1  0
 18 39  1  0
 18 40  1  0
 18 41  1  0
 19 42  1  0
 19 43  1  0
 19 44  1  0
 20 45  1  0
 20 46  1  0
 20 47  1  0
 21 48  1  0
 21 49  1  0
 28 50  1  0
M  END
> <Name>
26

> <Experimental_pIC50>
7.84

> <original_article_set>
training

$$$$
24
  SciTegic08162114073D

 55 58  0  0  0  0            999 V2000
    1.6779   -3.9334    7.7551 C   0  0
   -0.5419   -4.5270    8.5015 C   0  0
    0.9430   -0.7930    8.5456 C   0  0
    2.2279   -4.7820    8.7157 C   0  0
    0.0081   -5.3757    9.4622 C   0  0
    1.1855   -0.0846    9.7224 C   0  0
   -1.1693    0.4258    9.9004 C   0  0
    0.2930   -3.8058    7.6480 C   0  0
   -0.6469   -3.1833    5.3542 C   0  0
   -0.3557   -0.8920    8.0461 C   0  0
    1.3931   -5.5032    9.5693 C   0  0
    0.1293    0.5248   10.3998 C   0  0
   -1.4118   -0.2826    8.7235 C   0  0
   -1.1380   -1.9531    4.8774 C   0  0
   -0.2784   -2.9261    6.6521 C   0  0
   -1.6626   -1.6961    3.5216 C   0  0
   -2.5699   -1.9376    1.6416 C   0  0
   -1.4064   -5.5848    5.2560 C   0  0
    0.9088   -4.9621    4.4770 C   0  0
   -2.8930   -2.0932   -0.8518 C   0  0
   -4.8203   -2.5631    0.6976 C   0  0
   -2.9659   -4.2024    0.4627 C   0  0
   -0.5474   -4.4630    4.6268 C   0  0
   -3.2927   -2.6926    0.5138 C   0  0
   -1.0877   -0.9863    5.7977 N   0  0
   -1.5778   -0.5281    2.9287 N   0  0
   -2.1748   -0.6870    1.6920 N   0  0
   -0.5606   -1.6089    6.8657 N   0  0
   -2.2809   -2.6457    2.7675 O   0  0
    2.0711   -6.5520   10.7532 Cl  0  0
    0.4294    1.3985   11.8519 Cl  0  0
   -3.0383   -0.3765    8.1446 Cl  0  0
    2.3417   -3.3779    7.0970 H   0  0
   -1.6235   -4.4384    8.4300 H   0  0
    1.7769   -1.2626    8.0292 H   0  0
    3.3091   -4.8711    8.7881 H   0  0
   -0.6544   -5.9311   10.1210 H   0  0
    2.2026   -0.0158   10.1000 H   0  0
   -1.9914    0.9021   10.4305 H   0  0
   -1.1130   -5.7775    6.2937 H   0  0
   -1.3178   -6.5275    4.7052 H   0  0
   -2.4631   -5.2948    5.2563 H   0  0
    1.3637   -5.0992    5.4644 H   0  0
    1.5297   -4.2540    3.9174 H   0  0
    0.9491   -5.9241    3.9543 H   0  0
   -3.3956   -2.6147   -1.6748 H   0  0
   -3.1600   -1.0339   -0.9339 H   0  0
   -1.8120   -2.1736   -1.0166 H   0  0
   -5.3781   -3.0874   -0.0860 H   0  0
   -5.1405   -2.9869    1.6566 H   0  0
   -5.1324   -1.5122    0.6765 H   0  0
   -3.5039   -4.6955   -0.3559 H   0  0
   -1.8966   -4.3786    0.2969 H   0  0
   -3.2561   -4.7097    1.3901 H   0  0
   -0.9267   -4.3527    3.5871 H   0  0
  1  4  1  0
  1  8  2  0
  2  5  2  0
  2  8  1  0
  3  6  1  0
  3 10  2  0
  4 11  2  0
  5 11  1  0
  6 12  2  0
  7 12  1  0
  7 13  2  0
  8 15  1  0
  9 14  1  0
  9 15  2  0
  9 23  1  0
 10 13  1  0
 10 28  1  0
 11 30  1  0
 12 31  1  0
 13 32  1  0
 14 16  1  0
 14 25  2  0
 15 28  1  0
 16 26  2  0
 16 29  1  0
 17 24  1  0
 17 27  2  0
 17 29  1  0
 18 23  1  0
 19 23  1  0
 20 24  1  0
 21 24  1  0
 22 24  1  0
 25 28  1  0
 26 27  1  0
  1 33  1  0
  2 34  1  0
  3 35  1  0
  4 36  1  0
  5 37  1  0
  6 38  1  0
  7 39  1  0
 18 40  1  0
 18 41  1  0
 18 42  1  0
 19 43  1  0
 19 44  1  0
 19 45  1  0
 20 46  1  0
 20 47  1  0
 20 48  1  0
 21 49  1  0
 21 50  1  0
 21 51  1  0
 22 52  1  0
 22 53  1  0
 22 54  1  0
 23 55  1  0
M  END
> <Name>
24

> <Experimental_pIC50>
7.74

> <original_article_set>
training

$$$$
28
  SciTegic08162114073D

 53 56  0  0  0  0            999 V2000
   -0.4029   -4.9436    8.0565 C   0  0
    1.5407   -3.5157    8.1999 C   0  0
   -1.0085   -1.3177    9.2030 C   0  0
    0.1490   -5.7914    9.0169 C   0  0
    2.0926   -4.3634    9.1604 C   0  0
   -0.8274   -0.6260   10.4006 C   0  0
    0.6593    0.9172    9.2846 C   0  0
    0.2930   -3.8058    7.6480 C   0  0
   -0.6469   -3.1833    5.3542 C   0  0
   -0.3557   -0.8920    8.0461 C   0  0
    1.3967   -5.5013    9.5689 C   0  0
    0.0065    0.4914   10.4414 C   0  0
    0.4782    0.2254    8.0869 C   0  0
   -1.1380   -1.9531    4.8774 C   0  0
   -0.2784   -2.9261    6.6521 C   0  0
   -1.6626   -1.6961    3.5216 C   0  0
   -2.2693   -1.9410    1.5246 C   0  0
   -3.1127   -1.7424   -0.8408 C   0  0
   -3.4814   -3.8711    0.4511 C   0  0
   -1.2206   -3.2965   -0.4089 C   0  0
   -1.7755   -6.2925    3.8097 C   0  0
   -0.5474   -4.4630    4.6268 C   0  0
   -2.5057   -2.6993    0.2080 C   0  0
   -1.0877   -0.9863    5.7977 N   0  0
   -2.1080   -0.5236    3.1348 N   0  0
   -2.5073   -0.6848    1.8211 N   0  0
   -0.5606   -1.6089    6.8657 N   0  0
   -1.7319   -2.6510    2.5541 O   0  0
   -1.8396   -5.0580    4.5062 O   0  0
    2.0770   -6.5456   10.7555 Cl  0  0
    0.2291    1.3444   11.9195 Cl  0  0
    1.3093    0.7917    6.6804 Cl  0  0
   -1.3764   -5.1832    7.6356 H   0  0
    2.0952   -2.6323    7.8918 H   0  0
   -1.6619   -2.1869    9.1874 H   0  0
   -0.4045   -6.6748    9.3254 H   0  0
    3.0660   -4.1254    9.5814 H   0  0
   -1.3426   -0.9691   11.2943 H   0  0
    1.3093    1.7889    9.3190 H   0  0
   -3.2914   -2.2592   -1.7909 H   0  0
   -4.0734   -1.3275   -0.5167 H   0  0
   -2.4410   -0.8992   -1.0408 H   0  0
   -3.6799   -4.4417   -0.4627 H   0  0
   -3.0772   -4.5759    1.1872 H   0  0
   -4.4451   -3.5099    0.8293 H   0  0
   -1.4403   -3.8260   -1.3439 H   0  0
   -0.4866   -2.5173   -0.6455 H   0  0
   -0.7467   -4.0187    0.2661 H   0  0
   -2.7776   -6.7215    3.7341 H   0  0
   -1.1130   -6.9788    4.3431 H   0  0
   -1.3812   -6.1145    2.8064 H   0  0
   -0.1368   -4.3336    3.6096 H   0  0
    0.1127   -5.1817    5.1442 H   0  0
  1  4  1  0
  1  8  2  0
  2  5  2  0
  2  8  1  0
  3  6  1  0
  3 10  2  0
  4 11  2  0
  5 11  1  0
  6 12  2  0
  7 12  1  0
  7 13  2  0
  8 15  1  0
  9 14  1  0
  9 15  2  0
  9 22  1  0
 10 13  1  0
 10 27  1  0
 11 30  1  0
 12 31  1  0
 13 32  1  0
 14 16  1  0
 14 24  2  0
 15 27  1  0
 16 25  2  0
 16 28  1  0
 17 23  1  0
 17 26  2  0
 17 28  1  0
 18 23  1  0
 19 23  1  0
 20 23  1  0
 21 29  1  0
 22 29  1  0
 24 27  1  0
 25 26  1  0
  1 33  1  0
  2 34  1  0
  3 35  1  0
  4 36  1  0
  5 37  1  0
  6 38  1  0
  7 39  1  0
 18 40  1  0
 18 41  1  0
 18 42  1  0
 19 43  1  0
 19 44  1  0
 19 45  1  0
 20 46  1  0
 20 47  1  0
 20 48  1  0
 21 49  1  0
 21 50  1  0
 21 51  1  0
 22 52  1  0
 22 53  1  0
M  END
> <Name>
28

> <Experimental_pIC50>
7.81

> <original_article_set>
training

$$$$
25
  SciTegic08162114073D

 53 57  0  0  0  0            999 V2000
   -0.4044   -4.9472    8.0531 C   0  0
    1.5371   -3.5169    8.2022 C   0  0
   -1.0174   -1.3219    9.2040 C   0  0
    0.1472   -5.7959    9.0129 C   0  0
    2.0886   -4.3656    9.1620 C   0  0
   -0.8396   -0.6312   10.4026 C   0  0
    0.6473    0.9150    9.2910 C   0  0
    0.2906   -3.8077    7.6477 C   0  0
   -0.6462   -3.1832    5.3537 C   0  0
   -0.3629   -0.8943    8.0488 C   0  0
    1.3936   -5.5051    9.5673 C   0  0
   -0.0072    0.4873   10.4461 C   0  0
    0.4694    0.2242    8.0923 C   0  0
   -1.1380   -1.9531    4.8774 C   0  0
   -0.2804   -2.9270    6.6526 C   0  0
   -1.6626   -1.6961    3.5216 C   0  0
   -2.2689   -1.9409    1.5245 C   0  0
    0.8062   -5.1962    4.5110 C   0  0
    0.2240   -4.5503    3.2927 C   0  0
   -0.5421   -4.5017    4.6041 C   0  0
   -3.1121   -1.7423   -0.8409 C   0  0
   -3.4797   -3.8715    0.4503 C   0  0
   -1.2191   -3.2952   -0.4093 C   0  0
   -2.5046   -2.6990    0.2077 C   0  0
   -1.0905   -0.9873    5.7988 N   0  0
   -2.1087   -0.5238    3.1350 N   0  0
   -2.5077   -0.6849    1.8212 N   0  0
   -0.5646   -1.6104    6.8671 N   0  0
   -1.7312   -2.6508    2.5539 O   0  0
    2.0735   -6.5507   10.7531 Cl  0  0
    0.2115    1.3391   11.9254 Cl  0  0
    1.3025    0.7929    6.6880 Cl  0  0
   -1.3768   -5.1873    7.6302 H   0  0
    2.0909   -2.6322    7.8965 H   0  0
   -1.6697   -2.1919    9.1863 H   0  0
   -0.4056   -6.6807    9.3189 H   0  0
    3.0610   -4.1269    9.5850 H   0  0
   -1.3560   -0.9758   11.2950 H   0  0
    1.2961    1.7875    9.3275 H   0  0
    0.8257   -6.2786    4.5490 H   0  0
    1.6616   -4.7186    4.9736 H   0  0
    0.6861   -3.6376    2.9361 H   0  0
   -0.1503   -5.1964    2.5078 H   0  0
   -1.4130   -5.1554    4.6744 H   0  0
   -3.2904   -2.2590   -1.7912 H   0  0
   -4.0732   -1.3281   -0.5169 H   0  0
   -2.4409   -0.8985   -1.0407 H   0  0
   -3.6777   -4.4420   -0.4636 H   0  0
   -3.0751   -4.5762    1.1863 H   0  0
   -4.4436   -3.5110    0.8285 H   0  0
   -1.4383   -3.8246   -1.3444 H   0  0
   -0.4855   -2.5155   -0.6456 H   0  0
   -0.7448   -4.0173    0.2657 H   0  0
  1  4  1  0
  1  8  2  0
  2  5  2  0
  2  8  1  0
  3  6  1  0
  3 10  2  0
  4 11  2  0
  5 11  1  0
  6 12  2  0
  7 12  1  0
  7 13  2  0
  8 15  1  0
  9 14  1  0
  9 15  2  0
  9 20  1  0
 10 13  1  0
 10 28  1  0
 11 30  1  0
 12 31  1  0
 13 32  1  0
 14 16  1  0
 14 25  2  0
 15 28  1  0
 16 26  2  0
 16 29  1  0
 17 24  1  0
 17 27  2  0
 17 29  1  0
 18 19  1  0
 18 20  1  0
 19 20  1  0
 21 24  1  0
 22 24  1  0
 23 24  1  0
 25 28  1  0
 26 27  1  0
  1 33  1  0
  2 34  1  0
  3 35  1  0
  4 36  1  0
  5 37  1  0
  6 38  1  0
  7 39  1  0
 18 40  1  0
 18 41  1  0
 19 42  1  0
 19 43  1  0
 20 44  1  0
 21 45  1  0
 21 46  1  0
 21 47  1  0
 22 48  1  0
 22 49  1  0
 22 50  1  0
 23 51  1  0
 23 52  1  0
 23 53  1  0
M  END
> <Name>
25

> <Experimental_pIC50>
7.52

> <original_article_set>
training

$$$$
29
  SciTegic08162114073D

 57 60  0  0  0  0            999 V2000
   -0.4029   -4.9436    8.0565 C   0  0
    1.5407   -3.5157    8.1999 C   0  0
   -1.0085   -1.3177    9.2030 C   0  0
    0.1490   -5.7914    9.0169 C   0  0
    2.0926   -4.3634    9.1604 C   0  0
   -0.8274   -0.6260   10.4006 C   0  0
    0.6593    0.9172    9.2846 C   0  0
    0.2930   -3.8058    7.6480 C   0  0
   -0.6469   -3.1833    5.3542 C   0  0
   -0.3557   -0.8920    8.0461 C   0  0
    1.3967   -5.5013    9.5689 C   0  0
    0.0065    0.4914   10.4414 C   0  0
    0.4782    0.2254    8.0869 C   0  0
   -1.1380   -1.9531    4.8774 C   0  0
   -0.2784   -2.9261    6.6521 C   0  0
   -1.6626   -1.6961    3.5216 C   0  0
   -2.2693   -1.9410    1.5246 C   0  0
   -1.9769   -6.3645    3.8910 C   0  0
   -3.1127   -1.7424   -0.8408 C   0  0
   -3.4814   -3.8711    0.4511 C   0  0
   -1.2206   -3.2965   -0.4089 C   0  0
   -3.6089   -7.9873    3.3185 C   0  0
   -0.5474   -4.4630    4.6268 C   0  0
   -2.5057   -2.6993    0.2080 C   0  0
   -1.0877   -0.9863    5.7977 N   0  0
   -2.1080   -0.5236    3.1348 N   0  0
   -2.5073   -0.6848    1.8211 N   0  0
   -0.5606   -1.6089    6.8657 N   0  0
   -1.8246   -5.1260    4.4750 N   0  0
   -1.0749   -7.0574    3.4317 O   0  0
   -1.7319   -2.6510    2.5541 O   0  0
   -3.2977   -6.7151    3.8975 O   0  0
    2.0770   -6.5456   10.7555 Cl  0  0
    0.2291    1.3444   11.9195 Cl  0  0
    1.3093    0.7917    6.6804 Cl  0  0
   -1.3764   -5.1832    7.6356 H   0  0
    2.0952   -2.6323    7.8918 H   0  0
   -1.6619   -2.1869    9.1874 H   0  0
   -0.4045   -6.6748    9.3254 H   0  0
    3.0660   -4.1254    9.5814 H   0  0
   -1.3426   -0.9691   11.2943 H   0  0
    1.3093    1.7889    9.3190 H   0  0
   -3.2914   -2.2592   -1.7909 H   0  0
   -4.0734   -1.3275   -0.5167 H   0  0
   -2.4410   -0.8992   -1.0408 H   0  0
   -3.6799   -4.4417   -0.4627 H   0  0
   -3.0772   -4.5759    1.1872 H   0  0
   -4.4451   -3.5099    0.8293 H   0  0
   -1.4403   -3.8260   -1.3439 H   0  0
   -0.4866   -2.5173   -0.6455 H   0  0
   -0.7467   -4.0187    0.2661 H   0  0
   -4.6859   -8.1620    3.3780 H   0  0
   -3.0713   -8.7738    3.8542 H   0  0
   -3.2997   -7.9862    2.2706 H   0  0
   -0.1363   -4.3283    3.6101 H   0  0
    0.1226   -5.1813    5.1324 H   0  0
   -2.6537   -4.6528    4.8174 H   0  0
  1  4  1  0
  1  8  2  0
  2  5  2  0
  2  8  1  0
  3  6  1  0
  3 10  2  0
  4 11  2  0
  5 11  1  0
  6 12  2  0
  7 12  1  0
  7 13  2  0
  8 15  1  0
  9 14  1  0
  9 15  2  0
  9 23  1  0
 10 13  1  0
 10 28  1  0
 11 33  1  0
 12 34  1  0
 13 35  1  0
 14 16  1  0
 14 25  2  0
 15 28  1  0
 16 26  2  0
 16 31  1  0
 17 24  1  0
 17 27  2  0
 17 31  1  0
 18 29  1  0
 18 30  2  0
 18 32  1  0
 19 24  1  0
 20 24  1  0
 21 24  1  0
 22 32  1  0
 23 29  1  0
 25 28  1  0
 26 27  1  0
  1 36  1  0
  2 37  1  0
  3 38  1  0
  4 39  1  0
  5 40  1  0
  6 41  1  0
  7 42  1  0
 19 43  1  0
 19 44  1  0
 19 45  1  0
 20 46  1  0
 20 47  1  0
 20 48  1  0
 21 49  1  0
 21 50  1  0
 21 51  1  0
 22 52  1  0
 22 53  1  0
 22 54  1  0
 23 55  1  0
 23 56  1  0
 29 57  1  0
M  END
> <Name>
29

> <Experimental_pIC50>
7.81

> <original_article_set>
training

$$$$
27
  SciTegic08162114073D

 62 65  0  0  0  0            999 V2000
   -0.7993   -3.6713   -2.9287 C   0  0
   -1.6722   -3.6084   -5.1806 C   0  0
   -0.5585   -0.3019   -4.7773 C   0  0
    0.1314   -4.6352   -3.3163 C   0  0
   -0.7415   -4.5723   -5.5683 C   0  0
    0.2836    0.2178   -5.7604 C   0  0
   -1.6214    0.5764   -7.2025 C   0  0
   -1.7012   -3.1580   -3.8608 C   0  0
   -3.6597   -2.2201   -2.5129 C   0  0
   -1.9320   -0.3826   -5.0069 C   0  0
    0.1604   -5.0857   -4.6361 C   0  0
   -0.2479    0.6570   -6.9730 C   0  0
   -2.4634    0.0566   -6.2194 C   0  0
   -4.2747   -0.9548   -2.5649 C   0  0
   -2.6667   -2.1584   -3.4598 C   0  0
   -5.4112   -0.5091   -1.7360 C   0  0
   -6.9677   -0.4579   -0.3251 C   0  0
   -3.0690   -4.5930    4.3501 C   0  0
   -8.9057    0.0744    1.1936 C   0  0
   -7.0332   -1.3950    2.0125 C   0  0
   -8.6845   -2.2602    0.3675 C   0  0
   -4.0078   -3.3787   -1.6253 C   0  0
   -3.6153   -4.9355    2.9733 C   0  0
   -3.3365   -3.8218    1.9680 C   0  0
   -3.8437   -4.1792    0.5781 C   0  0
   -7.8410   -0.9815    0.7328 C   0  0
   -3.7188   -0.1483   -3.4730 N   0  0
   -5.9431    0.6870   -1.8308 N   0  0
   -6.9669    0.7208   -0.9025 N   0  0
   -2.7440   -0.9085   -4.0002 N   0  0
   -6.0073   -1.2974   -0.8001 O   0  0
   -3.5409   -3.1119   -0.3096 O   0  0
    1.3100   -6.2732   -5.1154 Cl  0  0
    0.7918    1.2984   -8.1852 Cl  0  0
   -4.1585   -0.0229   -6.5514 Cl  0  0
   -0.8095   -3.3302   -1.8963 H   0  0
   -2.3687   -3.2175   -5.9188 H   0  0
   -0.1289   -0.6400   -3.8372 H   0  0
    0.8279   -5.0267   -2.5790 H   0  0
   -0.7307   -4.9145   -6.5999 H   0  0
    1.3519    0.2747   -5.5677 H   0  0
   -2.0335    0.9195   -8.1492 H   0  0
   -3.5050   -3.6613    4.7245 H   0  0
   -3.2893   -5.3889    5.0687 H   0  0
   -1.9828   -4.4661    4.3061 H   0  0
   -9.5714   -0.2918    1.9839 H   0  0
   -8.4231    0.9804    1.5763 H   0  0
   -9.5298    0.3690    0.3415 H   0  0
   -7.6990   -1.7831    2.7910 H   0  0
   -6.2783   -2.1671    1.8228 H   0  0
   -6.5185   -0.5197    2.4260 H   0  0
   -9.3201   -2.6125    1.1889 H   0  0
   -9.3441   -2.0540   -0.4836 H   0  0
   -8.0229   -3.0903    0.0938 H   0  0
   -5.0912   -3.5371   -1.5946 H   0  0
   -3.5432   -4.3007   -1.9912 H   0  0
   -3.1598   -5.8710    2.6283 H   0  0
   -4.6951   -5.1086    3.0480 H   0  0
   -3.8067   -2.8866    2.2969 H   0  0
   -2.2601   -3.6145    1.9196 H   0  0
   -3.3596   -5.0883    0.2075 H   0  0
   -4.9280   -4.3297    0.5845 H   0  0
  1  4  1  0
  1  8  2  0
  2  5  2  0
  2  8  1  0
  3  6  1  0
  3 10  2  0
  4 11  2  0
  5 11  1  0
  6 12  2  0
  7 12  1  0
  7 13  2  0
  8 15  1  0
  9 14  1  0
  9 15  2  0
  9 22  1  0
 10 13  1  0
 10 30  1  0
 11 33  1  0
 12 34  1  0
 13 35  1  0
 14 16  1  0
 14 27  2  0
 15 30  1  0
 16 28  2  0
 16 31  1  0
 17 26  1  0
 17 29  2  0
 17 31  1  0
 18 23  1  0
 19 26  1  0
 20 26  1  0
 21 26  1  0
 22 32  1  0
 23 24  1  0
 24 25  1  0
 25 32  1  0
 27 30  1  0
 28 29  1  0
  1 36  1  0
  2 37  1  0
  3 38  1  0
  4 39  1  0
  5 40  1  0
  6 41  1  0
  7 42  1  0
 18 43  1  0
 18 44  1  0
 18 45  1  0
 19 46  1  0
 19 47  1  0
 19 48  1  0
 20 49  1  0
 20 50  1  0
 20 51  1  0
 21 52  1  0
 21 53  1  0
 21 54  1  0
 22 55  1  0
 22 56  1  0
 23 57  1  0
 23 58  1  0
 24 59  1  0
 24 60  1  0
 25 61  1  0
 25 62  1  0
M  END
> <Name>
27

> <Experimental_pIC50>
6.95

> <original_article_set>
training

$$$$
3
  SciTegic08162114073D

 49 52  0  0  1  0            999 V2000
   -0.0910   -6.8749   -1.8760 C   0  0
   -1.5057   -8.2446   -0.4761 C   0  0
    1.2013   -7.6278    1.6742 C   0  0
    0.0207   -7.9234   -2.7891 C   0  0
   -1.3941   -9.2931   -1.3892 C   0  0
    1.8016   -8.7287    2.2852 C   0  0
   -0.0073   -8.8279    3.8836 C   0  0
   -0.8541   -7.0355   -0.7195 C   0  0
   -1.4687   -4.6800    0.0593 C   0  0
   -0.0033   -7.1269    2.1680 C   0  0
   -0.6309   -9.1325   -2.5457 C   0  0
    1.1973   -9.3288    3.3899 C   0  0
   -0.6076   -7.7270    3.2727 C   0  0
   -1.3254   -4.0748    1.3222 C   0  0
   -0.9705   -5.9488    0.2280 C   0  0
   -1.7150   -2.6942    1.6710 C   0  0
   -2.4437   -0.7262    1.5617 C   0  0
   -2.0267   -4.0883   -1.1717 C   0  0
   -5.4638   -0.1407    1.5064 C   0  0
   -2.0674    1.6621    0.8904 C   0  0
   -4.3866    0.9363    1.5510 C   0  0
   -3.0607    0.4937    0.8993 C   0  0  2  0  0  0
   -0.7792   -4.8920    2.2266 N   0  0
   -1.5559   -2.1848    2.8702 N   0  0
   -2.0354   -0.8902    2.7983 N   0  0
   -0.5749   -6.0237    1.5311 N   0  0
   -2.2740   -1.8286    0.7816 O   0  0
   -0.4953  -10.4257   -3.6731 Cl  0  0
    1.9385  -10.6872    4.1429 Cl  0  0
   -2.1000   -7.1430    3.9218 Cl  0  0
    0.4228   -5.9385   -2.0797 H   0  0
   -2.1045   -8.3849    0.4209 H   0  0
    1.6848   -7.1711    0.8137 H   0  0
    0.6192   -7.7842   -3.6860 H   0  0
   -1.9067  -10.2298   -1.1864 H   0  0
    2.7403   -9.1083    1.8896 H   0  0
   -0.4767   -9.2976    4.7455 H   0  0
   -1.2407   -3.5971   -1.7688 H   0  0
   -2.5103   -4.8451   -1.8131 H   0  0
   -2.8023   -3.3337   -0.9541 H   0  0
   -5.0952   -1.0591    1.9748 H   0  0
   -6.3649    0.1682    2.0448 H   0  0
   -5.7408   -0.3757    0.4738 H   0  0
   -1.7948    1.9749    1.9043 H   0  0
   -1.1455    1.3801    0.3704 H   0  0
   -2.4890    2.5318    0.3739 H   0  0
   -4.7718    1.8478    1.0786 H   0  0
   -4.2010    1.1862    2.6033 H   0  0
   -3.2733    0.2517   -0.1511 H   0  0
  1  4  1  0
  1  8  2  0
  2  5  2  0
  2  8  1  0
  3  6  1  0
  3 10  2  0
  4 11  2  0
  5 11  1  0
  6 12  2  0
  7 12  1  0
  7 13  2  0
  8 15  1  0
  9 14  1  0
  9 15  2  0
  9 18  1  0
 10 13  1  0
 10 26  1  0
 11 28  1  0
 12 29  1  0
 13 30  1  0
 14 16  1  0
 14 23  2  0
 15 26  1  0
 16 24  2  0
 16 27  1  0
 17 22  1  0
 17 25  2  0
 17 27  1  0
 19 21  1  0
 20 22  1  0
 21 22  1  0
 23 26  1  0
 24 25  1  0
  1 31  1  0
  2 32  1  0
  3 33  1  0
  4 34  1  0
  5 35  1  0
  6 36  1  0
  7 37  1  0
 18 38  1  0
 18 39  1  0
 18 40  1  0
 19 41  1  0
 19 42  1  0
 19 43  1  0
 20 44  1  0
 20 45  1  0
 20 46  1  0
 21 47  1  0
 21 48  1  0
 22 49  1  0
M  END
> <Name>
3

> <Experimental_pIC50>
7.98

> <original_article_set>
training

$$$$
30
  SciTegic08162114073D

 48 51  0  0  0  0            999 V2000
   -0.4016   -4.9400    8.0627 C   0  0
    1.5385   -3.5073    8.2060 C   0  0
   -1.0141   -1.3160    9.2030 C   0  0
    0.1506   -5.7841    9.0260 C   0  0
    2.0907   -4.3515    9.1693 C   0  0
   -0.8352   -0.6235   10.4004 C   0  0
    0.6512    0.9207    9.2852 C   0  0
    0.2924   -3.8015    7.6526 C   0  0
   -0.6463   -3.1828    5.3549 C   0  0
   -0.3604   -0.8903    8.0466 C   0  0
    1.3968   -5.4899    9.5793 C   0  0
   -0.0025    0.4949   10.4415 C   0  0
    0.4722    0.2281    8.0877 C   0  0
   -1.1380   -1.9531    4.8774 C   0  0
   -0.2796   -2.9251    6.6532 C   0  0
   -1.6626   -1.6961    3.5216 C   0  0
   -2.2691   -1.9410    1.5245 C   0  0
   -0.5335   -4.4431    4.6794 C   0  0
   -2.3735   -1.7253   -0.9831 C   0  0
   -3.9222   -3.3124    0.2080 C   0  0
   -1.5081   -3.8549   -0.0355 C   0  0
   -2.5051   -2.6992    0.2078 C   0  0
   -1.0896   -0.9862    5.7976 N   0  0
   -2.1084   -0.5237    3.1349 N   0  0
   -2.5075   -0.6849    1.8212 N   0  0
   -0.5632   -1.6081    6.8663 N   0  0
   -0.0778   -5.4747    5.2071 O   0  0
   -1.7315   -2.6509    2.5540 O   0  0
    2.0774   -6.5299   10.7696 Cl  0  0
    0.2175    1.3489   11.9194 Cl  0  0
    1.3043    0.7945    6.6819 Cl  0  0
   -1.3738   -5.1827    7.6406 H   0  0
    2.0916   -2.6233    7.8967 H   0  0
   -1.6666   -2.1859    9.1871 H   0  0
   -0.4014   -6.6681    9.3357 H   0  0
    3.0628   -4.1102    9.5915 H   0  0
   -1.3510   -0.9666   11.2937 H   0  0
    1.3002    1.7932    9.3198 H   0  0
   -0.8743   -4.5069    3.6132 H   0  0
   -2.5376   -2.2417   -1.9361 H   0  0
   -3.1012   -0.9079   -0.9328 H   0  0
   -1.3744   -1.2746   -1.0155 H   0  0
   -4.1354   -3.8640   -0.7141 H   0  0
   -4.0481   -4.0166    1.0388 H   0  0
   -4.6884   -2.5348    0.3108 H   0  0
   -1.7169   -4.3635   -0.9844 H   0  0
   -0.4746   -3.4927   -0.0854 H   0  0
   -1.5671   -4.6119    0.7552 H   0  0
  1  4  1  0
  1  8  2  0
  2  5  2  0
  2  8  1  0
  3  6  1  0
  3 10  2  0
  4 11  2  0
  5 11  1  0
  6 12  2  0
  7 12  1  0
  7 13  2  0
  8 15  1  0
  9 14  1  0
  9 15  2  0
  9 18  1  0
 10 13  1  0
 10 26  1  0
 11 29  1  0
 12 30  1  0
 13 31  1  0
 14 16  1  0
 14 23  2  0
 15 26  1  0
 16 24  2  0
 16 28  1  0
 17 22  1  0
 17 25  2  0
 17 28  1  0
 18 27  2  0
 19 22  1  0
 20 22  1  0
 21 22  1  0
 23 26  1  0
 24 25  1  0
  1 32  1  0
  2 33  1  0
  3 34  1  0
  4 35  1  0
  5 36  1  0
  6 37  1  0
  7 38  1  0
 18 39  1  0
 19 40  1  0
 19 41  1  0
 19 42  1  0
 20 43  1  0
 20 44  1  0
 20 45  1  0
 21 46  1  0
 21 47  1  0
 21 48  1  0
M  END
> <Name>
30

> <Experimental_pIC50>
7.44

> <original_article_set>
training

$$$$
31
  SciTegic08162114073D

 49 52  0  0  0  0            999 V2000
   -0.4029   -4.9436    8.0565 C   0  0
    1.5407   -3.5157    8.1999 C   0  0
   -1.0085   -1.3177    9.2030 C   0  0
    0.1490   -5.7914    9.0169 C   0  0
    2.0926   -4.3634    9.1604 C   0  0
   -0.8274   -0.6260   10.4006 C   0  0
    0.6593    0.9172    9.2846 C   0  0
    0.2930   -3.8058    7.6480 C   0  0
   -0.6469   -3.1833    5.3542 C   0  0
   -0.3557   -0.8920    8.0461 C   0  0
    1.3967   -5.5013    9.5689 C   0  0
    0.0065    0.4914   10.4414 C   0  0
    0.4782    0.2254    8.0869 C   0  0
   -1.1380   -1.9531    4.8774 C   0  0
   -0.2784   -2.9261    6.6521 C   0  0
   -1.6626   -1.6961    3.5216 C   0  0
   -2.2693   -1.9410    1.5246 C   0  0
   -2.3738   -1.7257   -0.9831 C   0  0
   -3.9230   -3.3120    0.2084 C   0  0
   -1.5091   -3.8554   -0.0352 C   0  0
   -0.5474   -4.4630    4.6268 C   0  0
   -2.5057   -2.6993    0.2080 C   0  0
   -1.0877   -0.9863    5.7977 N   0  0
   -2.1080   -0.5236    3.1348 N   0  0
   -2.5073   -0.6848    1.8211 N   0  0
   -0.5606   -1.6089    6.8657 N   0  0
   -1.7319   -2.6510    2.5541 O   0  0
    0.2309   -4.3449    3.5119 F   0  0
   -1.7687   -4.8822    4.1851 F   0  0
    2.0770   -6.5456   10.7555 Cl  0  0
    0.2291    1.3444   11.9195 Cl  0  0
    1.3093    0.7917    6.6804 Cl  0  0
   -1.3764   -5.1832    7.6356 H   0  0
    2.0952   -2.6323    7.8918 H   0  0
   -1.6619   -2.1869    9.1874 H   0  0
   -0.4045   -6.6748    9.3254 H   0  0
    3.0660   -4.1254    9.5814 H   0  0
   -1.3426   -0.9691   11.2943 H   0  0
    1.3093    1.7889    9.3190 H   0  0
   -2.5381   -2.2422   -1.9360 H   0  0
   -3.1012   -0.9080   -0.9328 H   0  0
   -1.3746   -1.2754   -1.0156 H   0  0
   -4.1364   -3.8637   -0.7136 H   0  0
   -4.0491   -4.0161    1.0393 H   0  0
   -4.6889   -2.5342    0.3111 H   0  0
   -1.7181   -4.3641   -0.9841 H   0  0
   -0.4755   -3.4936   -0.0852 H   0  0
   -1.5683   -4.6123    0.7556 H   0  0
   -0.1252   -5.2760    5.2320 H   0  0
  1  4  1  0
  1  8  2  0
  2  5  2  0
  2  8  1  0
  3  6  1  0
  3 10  2  0
  4 11  2  0
  5 11  1  0
  6 12  2  0
  7 12  1  0
  7 13  2  0
  8 15  1  0
  9 14  1  0
  9 15  2  0
  9 21  1  0
 10 13  1  0
 10 26  1  0
 11 30  1  0
 12 31  1  0
 13 32  1  0
 14 16  1  0
 14 23  2  0
 15 26  1  0
 16 24  2  0
 16 27  1  0
 17 22  1  0
 17 25  2  0
 17 27  1  0
 18 22  1  0
 19 22  1  0
 20 22  1  0
 21 28  1  0
 21 29  1  0
 23 26  1  0
 24 25  1  0
  1 33  1  0
  2 34  1  0
  3 35  1  0
  4 36  1  0
  5 37  1  0
  6 38  1  0
  7 39  1  0
 18 40  1  0
 18 41  1  0
 18 42  1  0
 19 43  1  0
 19 44  1  0
 19 45  1  0
 20 46  1  0
 20 47  1  0
 20 48  1  0
 21 49  1  0
M  END
> <Name>
31

> <Experimental_pIC50>
7.44

> <original_article_set>
training

$$$$
32
  SciTegic08162114073D

 56 59  0  0  1  0            999 V2000
    1.5180   -4.4288    7.4092 C   0  0
   -0.3819   -4.0312    8.8477 C   0  0
    0.9430   -0.7930    8.5456 C   0  0
    2.0682   -5.2769    8.3702 C   0  0
    0.1683   -4.8794    9.8087 C   0  0
    1.1855   -0.0846    9.7224 C   0  0
   -1.1693    0.4258    9.9004 C   0  0
    0.2930   -3.8058    7.6480 C   0  0
   -0.6469   -3.1833    5.3542 C   0  0
   -0.3557   -0.8920    8.0461 C   0  0
    1.3933   -5.5023    9.5699 C   0  0
    0.1293    0.5248   10.3998 C   0  0
   -1.4118   -0.2826    8.7235 C   0  0
   -1.1380   -1.9531    4.8774 C   0  0
   -0.2784   -2.9261    6.6521 C   0  0
   -1.6626   -1.6961    3.5216 C   0  0
   -2.5699   -1.9376    1.6416 C   0  0
    0.2978   -4.3784    3.3472 C   0  0
   -2.8930   -2.0932   -0.8518 C   0  0
   -4.8203   -2.5631    0.6976 C   0  0
   -2.9659   -4.2024    0.4627 C   0  0
   -2.5168   -5.5274    5.3418 C   0  0
   -0.5474   -4.4630    4.6268 C   0  0  2  0  0  0
   -3.2927   -2.6926    0.5138 C   0  0
   -1.0877   -0.9863    5.7977 N   0  0
   -1.5778   -0.5281    2.9287 N   0  0
   -2.1748   -0.6870    1.6920 N   0  0
   -0.5606   -1.6089    6.8657 N   0  0
   -2.2809   -2.6457    2.7675 O   0  0
   -1.8611   -4.9092    4.2505 O   0  0
    2.0706   -6.5504   10.7549 Cl  0  0
    0.4294    1.3985   11.8519 Cl  0  0
   -3.0383   -0.3765    8.1446 Cl  0  0
    2.0560   -4.2631    6.4789 H   0  0
   -1.3379   -3.5529    9.0483 H   0  0
    1.7769   -1.2626    8.0292 H   0  0
    3.0239   -5.7553    8.1706 H   0  0
   -0.3683   -5.0453   10.7393 H   0  0
    2.2026   -0.0158   10.1000 H   0  0
   -1.9914    0.9021   10.4305 H   0  0
   -0.0744   -3.5891    2.6864 H   0  0
    0.2781   -5.3267    2.7983 H   0  0
    1.3498   -4.1751    3.5755 H   0  0
   -3.3956   -2.6147   -1.6748 H   0  0
   -3.1600   -1.0339   -0.9339 H   0  0
   -1.8120   -2.1736   -1.0166 H   0  0
   -5.3781   -3.0874   -0.0860 H   0  0
   -5.1405   -2.9869    1.6566 H   0  0
   -5.1324   -1.5122    0.6765 H   0  0
   -3.5039   -4.6955   -0.3559 H   0  0
   -1.8966   -4.3786    0.2969 H   0  0
   -3.2561   -4.7097    1.3901 H   0  0
   -3.5112   -5.8571    5.0311 H   0  0
   -2.5985   -4.8173    6.1686 H   0  0
   -1.9326   -6.3927    5.6637 H   0  0
   -0.1197   -5.2768    5.2479 H   0  0
  1  4  1  0
  1  8  2  0
  2  5  2  0
  2  8  1  0
  3  6  1  0
  3 10  2  0
  4 11  2  0
  5 11  1  0
  6 12  2  0
  7 12  1  0
  7 13  2  0
  8 15  1  0
  9 14  1  0
  9 15  2  0
  9 23  1  0
 10 13  1  0
 10 28  1  0
 11 31  1  0
 12 32  1  0
 13 33  1  0
 14 16  1  0
 14 25  2  0
 15 28  1  0
 16 26  2  0
 16 29  1  0
 17 24  1  0
 17 27  2  0
 17 29  1  0
 18 23  1  0
 19 24  1  0
 20 24  1  0
 21 24  1  0
 22 30  1  0
 23 30  1  0
 25 28  1  0
 26 27  1  0
  1 34  1  0
  2 35  1  0
  3 36  1  0
  4 37  1  0
  5 38  1  0
  6 39  1  0
  7 40  1  0
 18 41  1  0
 18 42  1  0
 18 43  1  0
 19 44  1  0
 19 45  1  0
 19 46  1  0
 20 47  1  0
 20 48  1  0
 20 49  1  0
 21 50  1  0
 21 51  1  0
 21 52  1  0
 22 53  1  0
 22 54  1  0
 22 55  1  0
 23 56  1  0
M  END
> <Name>
32

> <Experimental_pIC50>
7.2

> <original_article_set>
training

$$$$
34
  SciTegic08162114073D

 51 54  0  0  0  0            999 V2000
   -0.4016   -4.9400    8.0627 C   0  0
    1.5385   -3.5073    8.2060 C   0  0
   -1.0141   -1.3160    9.2030 C   0  0
    0.1506   -5.7841    9.0260 C   0  0
    2.0907   -4.3515    9.1693 C   0  0
   -0.8352   -0.6235   10.4004 C   0  0
    0.6512    0.9207    9.2852 C   0  0
    0.2924   -3.8015    7.6526 C   0  0
   -0.6463   -3.1828    5.3549 C   0  0
   -0.3604   -0.8903    8.0466 C   0  0
    1.3968   -5.4899    9.5793 C   0  0
   -0.0025    0.4949   10.4415 C   0  0
    0.4722    0.2281    8.0877 C   0  0
   -1.1380   -1.9531    4.8774 C   0  0
   -0.2796   -2.9251    6.6532 C   0  0
   -1.6626   -1.6961    3.5216 C   0  0
   -2.2691   -1.9410    1.5245 C   0  0
   -0.5335   -4.4431    4.6794 C   0  0
    0.8396   -5.0563    4.5380 C   0  0
   -2.3735   -1.7253   -0.9831 C   0  0
   -3.9222   -3.3124    0.2080 C   0  0
   -1.5081   -3.8549   -0.0355 C   0  0
   -2.5051   -2.6992    0.2078 C   0  0
   -1.0896   -0.9862    5.7976 N   0  0
   -2.1084   -0.5237    3.1349 N   0  0
   -2.5075   -0.6849    1.8212 N   0  0
   -0.5632   -1.6081    6.8663 N   0  0
   -1.4752   -5.0894    4.1855 O   0  0
   -1.7315   -2.6509    2.5540 O   0  0
    2.0774   -6.5299   10.7696 Cl  0  0
    0.2175    1.3489   11.9194 Cl  0  0
    1.3043    0.7945    6.6819 Cl  0  0
   -1.3738   -5.1827    7.6406 H   0  0
    2.0916   -2.6233    7.8967 H   0  0
   -1.6666   -2.1859    9.1871 H   0  0
   -0.4014   -6.6681    9.3357 H   0  0
    3.0628   -4.1102    9.5915 H   0  0
   -1.3510   -0.9666   11.2937 H   0  0
    1.3002    1.7932    9.3198 H   0  0
    1.1143   -5.7169    5.3755 H   0  0
    1.6371   -4.3041    4.4354 H   0  0
    0.9522   -5.7006    3.6478 H   0  0
   -2.5376   -2.2417   -1.9361 H   0  0
   -3.1012   -0.9079   -0.9328 H   0  0
   -1.3744   -1.2746   -1.0155 H   0  0
   -4.1354   -3.8640   -0.7141 H   0  0
   -4.0481   -4.0166    1.0388 H   0  0
   -4.6884   -2.5348    0.3108 H   0  0
   -1.7169   -4.3635   -0.9844 H   0  0
   -0.4746   -3.4927   -0.0854 H   0  0
   -1.5671   -4.6119    0.7552 H   0  0
  1  4  1  0
  1  8  2  0
  2  5  2  0
  2  8  1  0
  3  6  1  0
  3 10  2  0
  4 11  2  0
  5 11  1  0
  6 12  2  0
  7 12  1  0
  7 13  2  0
  8 15  1  0
  9 14  1  0
  9 15  2  0
  9 18  1  0
 10 13  1  0
 10 27  1  0
 11 30  1  0
 12 31  1  0
 13 32  1  0
 14 16  1  0
 14 24  2  0
 15 27  1  0
 16 25  2  0
 16 29  1  0
 17 23  1  0
 17 26  2  0
 17 29  1  0
 18 19  1  0
 18 28  2  0
 20 23  1  0
 21 23  1  0
 22 23  1  0
 24 27  1  0
 25 26  1  0
  1 33  1  0
  2 34  1  0
  3 35  1  0
  4 36  1  0
  5 37  1  0
  6 38  1  0
  7 39  1  0
 19 40  1  0
 19 41  1  0
 19 42  1  0
 20 43  1  0
 20 44  1  0
 20 45  1  0
 21 46  1  0
 21 47  1  0
 21 48  1  0
 22 49  1  0
 22 50  1  0
 22 51  1  0
M  END
> <Name>
34

> <Experimental_pIC50>
7.31

> <original_article_set>
training

$$$$
33
  SciTegic08162114073D

 52 55  0  0  1  0            999 V2000
    1.5180   -4.4288    7.4092 C   0  0
   -0.3819   -4.0312    8.8477 C   0  0
    0.9430   -0.7930    8.5456 C   0  0
    2.0682   -5.2769    8.3702 C   0  0
    0.1683   -4.8794    9.8087 C   0  0
    1.1855   -0.0846    9.7224 C   0  0
   -1.1693    0.4258    9.9004 C   0  0
    0.2930   -3.8058    7.6480 C   0  0
   -0.6469   -3.1833    5.3542 C   0  0
   -0.3557   -0.8920    8.0461 C   0  0
    1.3933   -5.5023    9.5699 C   0  0
    0.1293    0.5248   10.3998 C   0  0
   -1.4118   -0.2826    8.7235 C   0  0
   -1.1380   -1.9531    4.8774 C   0  0
   -0.2784   -2.9261    6.6521 C   0  0
   -1.6626   -1.6961    3.5216 C   0  0
   -2.5699   -1.9376    1.6416 C   0  0
   -1.8206   -5.3101    4.7403 C   0  0
   -2.8930   -2.0932   -0.8518 C   0  0
   -4.8203   -2.5631    0.6976 C   0  0
   -2.9659   -4.2024    0.4627 C   0  0
   -0.5474   -4.4630    4.6268 C   0  0  1  0  0  0
   -3.2927   -2.6926    0.5138 C   0  0
   -1.0877   -0.9863    5.7977 N   0  0
   -1.5778   -0.5281    2.9287 N   0  0
   -2.1748   -0.6870    1.6920 N   0  0
   -0.5606   -1.6089    6.8657 N   0  0
   -2.2809   -2.6457    2.7675 O   0  0
   -0.3006   -4.3189    3.2777 F   0  0
    2.0706   -6.5504   10.7549 Cl  0  0
    0.4294    1.3985   11.8519 Cl  0  0
   -3.0383   -0.3765    8.1446 Cl  0  0
    2.0560   -4.2631    6.4789 H   0  0
   -1.3379   -3.5529    9.0483 H   0  0
    1.7769   -1.2626    8.0292 H   0  0
    3.0239   -5.7553    8.1706 H   0  0
   -0.3683   -5.0453   10.7393 H   0  0
    2.2026   -0.0158   10.1000 H   0  0
   -1.9914    0.9021   10.4305 H   0  0
   -2.6874   -4.7468    4.3769 H   0  0
   -1.7485   -6.2161    4.1299 H   0  0
   -2.0111   -5.6032    5.7776 H   0  0
   -3.3956   -2.6147   -1.6748 H   0  0
   -3.1600   -1.0339   -0.9339 H   0  0
   -1.8120   -2.1736   -1.0166 H   0  0
   -5.3781   -3.0874   -0.0860 H   0  0
   -5.1405   -2.9869    1.6566 H   0  0
   -5.1324   -1.5122    0.6765 H   0  0
   -3.5039   -4.6955   -0.3559 H   0  0
   -1.8966   -4.3786    0.2969 H   0  0
   -3.2561   -4.7097    1.3901 H   0  0
    0.3034   -5.0635    5.0019 H   0  0
  1  4  1  0
  1  8  2  0
  2  5  2  0
  2  8  1  0
  3  6  1  0
  3 10  2  0
  4 11  2  0
  5 11  1  0
  6 12  2  0
  7 12  1  0
  7 13  2  0
  8 15  1  0
  9 14  1  0
  9 15  2  0
  9 22  1  0
 10 13  1  0
 10 27  1  0
 11 30  1  0
 12 31  1  0
 13 32  1  0
 14 16  1  0
 14 24  2  0
 15 27  1  0
 16 25  2  0
 16 28  1  0
 17 23  1  0
 17 26  2  0
 17 28  1  0
 18 22  1  0
 19 23  1  0
 20 23  1  0
 21 23  1  0
 22 29  1  0
 24 27  1  0
 25 26  1  0
  1 33  1  0
  2 34  1  0
  3 35  1  0
  4 36  1  0
  5 37  1  0
  6 38  1  0
  7 39  1  0
 18 40  1  0
 18 41  1  0
 18 42  1  0
 19 43  1  0
 19 44  1  0
 19 45  1  0
 20 46  1  0
 20 47  1  0
 20 48  1  0
 21 49  1  0
 21 50  1  0
 21 51  1  0
 22 52  1  0
M  END
> <Name>
33

> <Experimental_pIC50>
7.85

> <original_article_set>
training

$$$$
36
  SciTegic08162114073D

 56 59  0  0  0  0            999 V2000
    1.6779   -3.9334    7.7551 C   0  0
   -0.5419   -4.5270    8.5015 C   0  0
    0.9430   -0.7930    8.5456 C   0  0
    2.2279   -4.7820    8.7157 C   0  0
    0.0081   -5.3757    9.4622 C   0  0
    1.1855   -0.0846    9.7224 C   0  0
   -1.1693    0.4258    9.9004 C   0  0
    0.2930   -3.8058    7.6480 C   0  0
   -0.6469   -3.1833    5.3542 C   0  0
   -0.3557   -0.8920    8.0461 C   0  0
    1.3931   -5.5032    9.5693 C   0  0
    0.1293    0.5248   10.3998 C   0  0
   -1.4118   -0.2826    8.7235 C   0  0
   -1.1380   -1.9531    4.8774 C   0  0
   -0.2784   -2.9261    6.6521 C   0  0
   -1.6626   -1.6961    3.5216 C   0  0
   -1.9972   -1.7852    1.4489 C   0  0
   -0.6735   -5.7427    5.5048 C   0  0
    0.7779   -4.5553    3.8262 C   0  0
   -2.7322   -1.5217   -0.9461 C   0  0
   -2.1187   -3.7973   -0.0622 C   0  0
   -0.3538   -2.1067   -0.5187 C   0  0
   -0.5474   -4.4630    4.6268 C   0  0
   -1.7944   -2.2894    0.0105 C   0  0
   -1.0877   -0.9863    5.7977 N   0  0
   -2.5872   -0.7997    3.2678 N   0  0
   -2.8074   -0.8585    1.9043 N   0  0
   -0.5606   -1.6089    6.8657 N   0  0
   -1.2354   -2.3655    2.4161 O   0  0
   -1.6163   -4.5943    3.6530 O   0  0
    2.0711   -6.5520   10.7532 Cl  0  0
    0.4294    1.3985   11.8519 Cl  0  0
   -3.0383   -0.3765    8.1446 Cl  0  0
    2.3417   -3.3779    7.0970 H   0  0
   -1.6235   -4.4384    8.4300 H   0  0
    1.7769   -1.2626    8.0292 H   0  0
    3.3091   -4.8711    8.7881 H   0  0
   -0.6544   -5.9311   10.1210 H   0  0
    2.2026   -0.0158   10.1000 H   0  0
   -1.9914    0.9021   10.4305 H   0  0
   -0.5928   -6.6651    4.9171 H   0  0
    0.0938   -5.7808    6.2845 H   0  0
   -1.6581   -5.7683    5.9866 H   0  0
    0.8756   -5.4986    3.2763 H   0  0
    1.6440   -4.4521    4.4889 H   0  0
    0.8243   -3.7557    3.0772 H   0  0
   -2.6072   -1.8628   -1.9805 H   0  0
   -3.7885   -1.6585   -0.6897 H   0  0
   -2.5247   -0.4453   -0.9224 H   0  0
   -1.9876   -4.2014   -1.0719 H   0  0
   -1.4642   -4.3749    0.6012 H   0  0
   -3.1548   -3.9929    0.2385 H   0  0
   -0.2598   -2.4803   -1.5455 H   0  0
   -0.0597   -1.0507   -0.5326 H   0  0
    0.3729   -2.6558    0.0913 H   0  0
   -1.4691   -5.4485    3.2347 H   0  0
  1  4  1  0
  1  8  2  0
  2  5  2  0
  2  8  1  0
  3  6  1  0
  3 10  2  0
  4 11  2  0
  5 11  1  0
  6 12  2  0
  7 12  1  0
  7 13  2  0
  8 15  1  0
  9 14  1  0
  9 15  2  0
  9 23  1  0
 10 13  1  0
 10 28  1  0
 11 31  1  0
 12 32  1  0
 13 33  1  0
 14 16  1  0
 14 25  2  0
 15 28  1  0
 16 26  2  0
 16 29  1  0
 17 24  1  0
 17 27  2  0
 17 29  1  0
 18 23  1  0
 19 23  1  0
 20 24  1  0
 21 24  1  0
 22 24  1  0
 23 30  1  0
 25 28  1  0
 26 27  1  0
  1 34  1  0
  2 35  1  0
  3 36  1  0
  4 37  1  0
  5 38  1  0
  6 39  1  0
  7 40  1  0
 18 41  1  0
 18 42  1  0
 18 43  1  0
 19 44  1  0
 19 45  1  0
 19 46  1  0
 20 47  1  0
 20 48  1  0
 20 49  1  0
 21 50  1  0
 21 51  1  0
 21 52  1  0
 22 53  1  0
 22 54  1  0
 22 55  1  0
 30 56  1  0
M  END
> <Name>
36

> <Experimental_pIC50>
7.65

> <original_article_set>
training

$$$$
37
  SciTegic08162114073D

 53 56  0  0  0  0            999 V2000
    1.1752   -6.9602    3.1510 C   0  0
   -0.8832   -8.2025    2.9125 C   0  0
   -0.5566   -6.7862   -0.2763 C   0  0
    1.8609   -8.1465    3.4119 C   0  0
   -0.1974   -9.3888    3.1733 C   0  0
   -0.6447   -7.6451   -1.3718 C   0  0
   -3.0507   -7.6764   -1.1537 C   0  0
   -0.1969   -6.9882    2.9014 C   0  0
   -1.0649   -4.6315    3.4019 C   0  0
   -1.7155   -6.3724    0.3805 C   0  0
    1.1747   -9.3608    3.4230 C   0  0
   -1.8917   -8.0902   -1.8105 C   0  0
   -2.9625   -6.8175   -0.0582 C   0  0
   -1.8542   -3.7716    2.6149 C   0  0
   -0.9098   -5.7572    2.6304 C   0  0
   -2.3106   -2.4183    2.9891 C   0  0
   -2.6375   -0.6311    4.0450 C   0  0
   -1.2759   -4.7860    5.7745 C   0  0
   -0.5353   -4.4193    4.6934 C   0  0
    0.8274   -3.7865    4.9667 C   0  0
   -3.7908    1.2289    5.2923 C   0  0
   -1.2866    1.2491    5.0384 C   0  0
   -2.3803   -0.3465    6.6002 C   0  0
   -2.5254    0.3467    5.2264 C   0  0
   -2.1778   -4.3053    1.4340 N   0  0
   -3.0474   -1.6669    2.2047 N   0  0
   -3.2623   -0.4912    2.8993 N   0  0
   -1.5888   -5.5126    1.4732 N   0  0
   -2.0072   -1.8302    4.1785 O   0  0
    2.0207  -10.8249    3.7426 Cl  0  0
   -1.9995   -9.1497   -3.1624 Cl  0  0
   -4.4273   -6.3333    0.7227 Cl  0  0
    1.7240   -6.0216    3.1458 H   0  0
   -1.9528   -8.2405    2.7194 H   0  0
    0.4229   -6.4478    0.0535 H   0  0
    2.9302   -8.1095    3.6052 H   0  0
   -0.7451  -10.3277    3.1795 H   0  0
    0.2668   -7.9593   -1.8740 H   0  0
   -4.0221   -8.0251   -1.4977 H   0  0
   -0.9099   -4.6423    6.7868 H   0  0
   -2.2550   -5.2452    5.6778 H   0  0
    0.7145   -2.7010    5.0586 H   0  0
    1.2423   -4.1721    5.9037 H   0  0
    1.5604   -3.9761    4.1751 H   0  0
   -3.7363    1.9366    6.1278 H   0  0
   -3.9320    1.8202    4.3810 H   0  0
   -4.6908    0.6179    5.4307 H   0  0
   -1.1662    1.9643    5.8593 H   0  0
   -0.3669    0.6539    4.9949 H   0  0
   -1.3556    1.8248    4.1078 H   0  0
   -2.3042    0.3906    7.4086 H   0  0
   -3.2449   -0.9821    6.8249 H   0  0
   -1.4784   -0.9680    6.6454 H   0  0
  1  4  1  0
  1  8  2  0
  2  5  2  0
  2  8  1  0
  3  6  1  0
  3 10  2  0
  4 11  2  0
  5 11  1  0
  6 12  2  0
  7 12  1  0
  7 13  2  0
  8 15  1  0
  9 14  1  0
  9 15  2  0
  9 19  1  0
 10 13  1  0
 10 28  1  0
 11 30  1  0
 12 31  1  0
 13 32  1  0
 14 16  1  0
 14 25  2  0
 15 28  1  0
 16 26  2  0
 16 29  1  0
 17 24  1  0
 17 27  2  0
 17 29  1  0
 18 19  2  0
 19 20  1  0
 21 24  1  0
 22 24  1  0
 23 24  1  0
 25 28  1  0
 26 27  1  0
  1 33  1  0
  2 34  1  0
  3 35  1  0
  4 36  1  0
  5 37  1  0
  6 38  1  0
  7 39  1  0
 18 40  1  0
 18 41  1  0
 20 42  1  0
 20 43  1  0
 20 44  1  0
 21 45  1  0
 21 46  1  0
 21 47  1  0
 22 48  1  0
 22 49  1  0
 22 50  1  0
 23 51  1  0
 23 52  1  0
 23 53  1  0
M  END
> <Name>
37

> <Experimental_pIC50>
8.32

> <original_article_set>
training

$$$$
35
  SciTegic08162114073D

 60 63  0  0  1  0            999 V2000
   -0.4029   -4.9436    8.0565 C   0  0
    1.5407   -3.5157    8.1999 C   0  0
   -1.0085   -1.3177    9.2030 C   0  0
    0.1490   -5.7914    9.0169 C   0  0
    2.0926   -4.3634    9.1604 C   0  0
   -0.8274   -0.6260   10.4006 C   0  0
    0.6593    0.9172    9.2846 C   0  0
    0.2930   -3.8058    7.6480 C   0  0
   -0.6469   -3.1833    5.3542 C   0  0
   -0.3557   -0.8920    8.0461 C   0  0
    1.3967   -5.5013    9.5689 C   0  0
    0.0065    0.4914   10.4414 C   0  0
    0.4782    0.2254    8.0869 C   0  0
   -1.1380   -1.9531    4.8774 C   0  0
   -0.2784   -2.9261    6.6521 C   0  0
   -1.6626   -1.6961    3.5216 C   0  0
   -2.5699   -1.9376    1.6416 C   0  0
   -2.1063   -6.3386    4.1241 C   0  0
    0.3530   -4.3998    3.3762 C   0  0
   -3.5344   -1.7401   -0.6772 C   0  0
   -4.6508   -3.2180    1.0274 C   0  0
   -2.5080   -3.9093   -0.0270 C   0  0
   -3.8332   -7.8735    3.5888 C   0  0
   -0.5474   -4.4630    4.6268 C   0  0  2  0  0  0
   -3.2927   -2.6926    0.5138 C   0  0
   -1.0877   -0.9863    5.7977 N   0  0
   -1.5778   -0.5281    2.9287 N   0  0
   -2.1748   -0.6870    1.6920 N   0  0
   -0.5606   -1.6089    6.8657 N   0  0
   -1.8512   -4.9972    4.2472 N   0  0
   -1.3053   -7.2490    4.3087 O   0  0
   -2.2809   -2.6457    2.7675 O   0  0
   -3.4110   -6.5156    3.7583 O   0  0
    2.0770   -6.5456   10.7555 Cl  0  0
    0.2291    1.3444   11.9195 Cl  0  0
    1.3093    0.7917    6.6804 Cl  0  0
   -1.3764   -5.1832    7.6356 H   0  0
    2.0952   -2.6323    7.8918 H   0  0
   -1.6619   -2.1869    9.1874 H   0  0
   -0.4045   -6.6748    9.3254 H   0  0
    3.0660   -4.1254    9.5814 H   0  0
   -1.3426   -0.9691   11.2943 H   0  0
    1.3093    1.7889    9.3190 H   0  0
   -0.0106   -3.6335    2.6829 H   0  0
    1.3909   -4.1599    3.6334 H   0  0
    0.3666   -5.3577    2.8442 H   0  0
   -4.0495   -2.2547   -1.4967 H   0  0
   -4.1532   -0.8794   -0.4008 H   0  0
   -2.5872   -1.3517   -1.0700 H   0  0
   -5.2029   -3.7645    0.2550 H   0  0
   -4.5155   -3.9052    1.8708 H   0  0
   -5.2893   -2.3942    1.3675 H   0  0
   -3.0630   -4.4134   -0.8274 H   0  0
   -1.5395   -3.6115   -0.4456 H   0  0
   -2.3269   -4.6537    0.7572 H   0  0
   -4.8864   -7.8949    3.2982 H   0  0
   -3.6912   -8.4197    4.5247 H   0  0
   -3.2315   -8.3374    2.8036 H   0  0
   -0.1167   -5.2556    5.2737 H   0  0
   -2.6014   -4.3477    4.0664 H   0  0
  1  4  1  0
  1  8  2  0
  2  5  2  0
  2  8  1  0
  3  6  1  0
  3 10  2  0
  4 11  2  0
  5 11  1  0
  6 12  2  0
  7 12  1  0
  7 13  2  0
  8 15  1  0
  9 14  1  0
  9 15  2  0
  9 24  1  0
 10 13  1  0
 10 29  1  0
 11 34  1  0
 12 35  1  0
 13 36  1  0
 14 16  1  0
 14 26  2  0
 15 29  1  0
 16 27  2  0
 16 32  1  0
 17 25  1  0
 17 28  2  0
 17 32  1  0
 18 30  1  0
 18 31  2  0
 18 33  1  0
 19 24  1  0
 20 25  1  0
 21 25  1  0
 22 25  1  0
 23 33  1  0
 24 30  1  0
 26 29  1  0
 27 28  1  0
  1 37  1  0
  2 38  1  0
  3 39  1  0
  4 40  1  0
  5 41  1  0
  6 42  1  0
  7 43  1  0
 19 44  1  0
 19 45  1  0
 19 46  1  0
 20 47  1  0
 20 48  1  0
 20 49  1  0
 21 50  1  0
 21 51  1  0
 21 52  1  0
 22 53  1  0
 22 54  1  0
 22 55  1  0
 23 56  1  0
 23 57  1  0
 23 58  1  0
 24 59  1  0
 30 60  1  0
M  END
> <Name>
35

> <Experimental_pIC50>
8.05

> <original_article_set>
training

$$$$
39
  SciTegic08162114073D

 50 53  0  0  0  0            999 V2000
    0.5933   -4.4569    3.6892 C   0  0
    1.5180   -4.4288    7.4092 C   0  0
   -0.3819   -4.0312    8.8477 C   0  0
    0.9430   -0.7930    8.5456 C   0  0
    2.0682   -5.2769    8.3702 C   0  0
    0.1683   -4.8794    9.8087 C   0  0
    1.1855   -0.0846    9.7224 C   0  0
   -1.1693    0.4258    9.9004 C   0  0
    0.2930   -3.8058    7.6480 C   0  0
   -0.6469   -3.1833    5.3542 C   0  0
   -0.3557   -0.8920    8.0461 C   0  0
    1.3933   -5.5023    9.5699 C   0  0
    0.1293    0.5248   10.3998 C   0  0
   -1.4118   -0.2826    8.7235 C   0  0
   -1.1380   -1.9531    4.8774 C   0  0
   -0.2784   -2.9261    6.6521 C   0  0
   -1.6626   -1.6961    3.5216 C   0  0
   -2.2693   -1.9410    1.5246 C   0  0
   -2.3738   -1.7257   -0.9831 C   0  0
   -3.9230   -3.3120    0.2084 C   0  0
   -1.5091   -3.8554   -0.0352 C   0  0
   -0.5474   -4.4630    4.6268 C   0  0
   -2.5057   -2.6993    0.2080 C   0  0
    1.4915   -4.4414    2.9547 N   0  0
   -1.0877   -0.9863    5.7977 N   0  0
   -2.1080   -0.5236    3.1348 N   0  0
   -2.5073   -0.6848    1.8211 N   0  0
   -0.5606   -1.6089    6.8657 N   0  0
   -1.7319   -2.6510    2.5541 O   0  0
    2.0706   -6.5504   10.7549 Cl  0  0
    0.4294    1.3985   11.8519 Cl  0  0
   -3.0383   -0.3765    8.1446 Cl  0  0
    2.0560   -4.2631    6.4789 H   0  0
   -1.3379   -3.5529    9.0483 H   0  0
    1.7769   -1.2626    8.0292 H   0  0
    3.0239   -5.7553    8.1706 H   0  0
   -0.3683   -5.0453   10.7393 H   0  0
    2.2026   -0.0158   10.1000 H   0  0
   -1.9914    0.9021   10.4305 H   0  0
   -2.5381   -2.2422   -1.9360 H   0  0
   -3.1012   -0.9080   -0.9328 H   0  0
   -1.3746   -1.2754   -1.0156 H   0  0
   -4.1364   -3.8637   -0.7136 H   0  0
   -4.0491   -4.0161    1.0393 H   0  0
   -4.6889   -2.5342    0.3111 H   0  0
   -1.7181   -4.3641   -0.9841 H   0  0
   -0.4755   -3.4936   -0.0852 H   0  0
   -1.5683   -4.6123    0.7556 H   0  0
   -1.4719   -4.6767    4.0620 H   0  0
   -0.4325   -5.3129    5.3225 H   0  0
  1 22  1  0
  1 24  3  0
  2  5  1  0
  2  9  2  0
  3  6  2  0
  3  9  1  0
  4  7  1  0
  4 11  2  0
  5 12  2  0
  6 12  1  0
  7 13  2  0
  8 13  1  0
  8 14  2  0
  9 16  1  0
 10 15  1  0
 10 16  2  0
 10 22  1  0
 11 14  1  0
 11 28  1  0
 12 30  1  0
 13 31  1  0
 14 32  1  0
 15 17  1  0
 15 25  2  0
 16 28  1  0
 17 26  2  0
 17 29  1  0
 18 23  1  0
 18 27  2  0
 18 29  1  0
 19 23  1  0
 20 23  1  0
 21 23  1  0
 25 28  1  0
 26 27  1  0
  2 33  1  0
  3 34  1  0
  4 35  1  0
  5 36  1  0
  6 37  1  0
  7 38  1  0
  8 39  1  0
 19 40  1  0
 19 41  1  0
 19 42  1  0
 20 43  1  0
 20 44  1  0
 20 45  1  0
 21 46  1  0
 21 47  1  0
 21 48  1  0
 22 49  1  0
 22 50  1  0
M  END
> <Name>
39

> <Experimental_pIC50>
8.21

> <original_article_set>
training

$$$$
38
  SciTegic08162114073D

 55 58  0  0  0  0            999 V2000
   -0.4029   -4.9436    8.0565 C   0  0
    1.5407   -3.5157    8.1999 C   0  0
   -1.0085   -1.3177    9.2030 C   0  0
    0.1490   -5.7914    9.0169 C   0  0
    2.0926   -4.3634    9.1604 C   0  0
   -0.8274   -0.6260   10.4006 C   0  0
    0.6593    0.9172    9.2846 C   0  0
    0.2930   -3.8058    7.6480 C   0  0
   -0.6469   -3.1833    5.3542 C   0  0
   -0.3557   -0.8920    8.0461 C   0  0
    1.3967   -5.5013    9.5689 C   0  0
    0.0065    0.4914   10.4414 C   0  0
    0.4782    0.2254    8.0869 C   0  0
   -1.1380   -1.9531    4.8774 C   0  0
   -0.2784   -2.9261    6.6521 C   0  0
   -1.6626   -1.6961    3.5216 C   0  0
   -2.2693   -1.9410    1.5246 C   0  0
   -1.8788   -6.2533    3.8483 C   0  0
   -3.2899   -6.7556    3.7990 C   0  0
   -3.1127   -1.7424   -0.8408 C   0  0
   -3.4814   -3.8711    0.4511 C   0  0
   -1.2206   -3.2965   -0.4089 C   0  0
   -0.5474   -4.4630    4.6268 C   0  0
   -2.5057   -2.6993    0.2080 C   0  0
   -1.0877   -0.9863    5.7977 N   0  0
   -2.1080   -0.5236    3.1348 N   0  0
   -2.5073   -0.6848    1.8211 N   0  0
   -0.5606   -1.6089    6.8657 N   0  0
   -0.9235   -6.8450    3.3642 O   0  0
   -1.7319   -2.6510    2.5541 O   0  0
   -1.8396   -5.0580    4.5062 O   0  0
    2.0770   -6.5456   10.7555 Cl  0  0
    0.2291    1.3444   11.9195 Cl  0  0
    1.3093    0.7917    6.6804 Cl  0  0
   -1.3764   -5.1832    7.6356 H   0  0
    2.0952   -2.6323    7.8918 H   0  0
   -1.6619   -2.1869    9.1874 H   0  0
   -0.4045   -6.6748    9.3254 H   0  0
    3.0660   -4.1254    9.5814 H   0  0
   -1.3426   -0.9691   11.2943 H   0  0
    1.3093    1.7889    9.3190 H   0  0
   -3.4943   -7.3740    4.6766 H   0  0
   -3.4489   -7.3257    2.8802 H   0  0
   -3.9780   -5.9052    3.8039 H   0  0
   -3.2914   -2.2592   -1.7909 H   0  0
   -4.0734   -1.3275   -0.5167 H   0  0
   -2.4410   -0.8992   -1.0408 H   0  0
   -3.6799   -4.4417   -0.4627 H   0  0
   -3.0772   -4.5759    1.1872 H   0  0
   -4.4451   -3.5099    0.8293 H   0  0
   -1.4403   -3.8260   -1.3439 H   0  0
   -0.4866   -2.5173   -0.6455 H   0  0
   -0.7467   -4.0187    0.2661 H   0  0
   -0.1368   -4.3336    3.6096 H   0  0
    0.1127   -5.1817    5.1442 H   0  0
  1  4  1  0
  1  8  2  0
  2  5  2  0
  2  8  1  0
  3  6  1  0
  3 10  2  0
  4 11  2  0
  5 11  1  0
  6 12  2  0
  7 12  1  0
  7 13  2  0
  8 15  1  0
  9 14  1  0
  9 15  2  0
  9 23  1  0
 10 13  1  0
 10 28  1  0
 11 32  1  0
 12 33  1  0
 13 34  1  0
 14 16  1  0
 14 25  2  0
 15 28  1  0
 16 26  2  0
 16 30  1  0
 17 24  1  0
 17 27  2  0
 17 30  1  0
 18 19  1  0
 18 29  2  0
 18 31  1  0
 20 24  1  0
 21 24  1  0
 22 24  1  0
 23 31  1  0
 25 28  1  0
 26 27  1  0
  1 35  1  0
  2 36  1  0
  3 37  1  0
  4 38  1  0
  5 39  1  0
  6 40  1  0
  7 41  1  0
 19 42  1  0
 19 43  1  0
 19 44  1  0
 20 45  1  0
 20 46  1  0
 20 47  1  0
 21 48  1  0
 21 49  1  0
 21 50  1  0
 22 51  1  0
 22 52  1  0
 22 53  1  0
 23 54  1  0
 23 55  1  0
M  END
> <Name>
38

> <Experimental_pIC50>
7.65

> <original_article_set>
training

$$$$
4
  SciTegic08162114073D

 55 58  0  0  1  0            999 V2000
   -4.1532  -10.2470   -3.2252 C   0  0
   -5.7492   -9.6929   -1.4981 C   0  0
   -2.7112   -9.0253    0.1317 C   0  0
   -4.6192  -11.5616   -3.2341 C   0  0
   -6.2153  -11.0075   -1.5070 C   0  0
   -2.5097   -9.6099    1.3820 C   0  0
   -3.9221   -7.9314    2.3944 C   0  0
   -4.7182   -9.3126   -2.3572 C   0  0
   -4.2062   -7.0156   -3.3543 C   0  0
   -3.5181   -7.8938    0.0127 C   0  0
   -5.6503  -11.9419   -2.3751 C   0  0
   -3.1152   -9.0629    2.5134 C   0  0
   -4.1236   -7.3468    1.1440 C   0  0
   -3.6303   -5.8761   -2.7613 C   0  0
   -4.2357   -7.9490   -2.3471 C   0  0
   -3.3742   -4.5859   -3.4316 C   0  0
   -3.2640   -3.0596   -4.8718 C   0  0
   -4.6734   -7.1762   -4.7445 C   0  0
    1.0408   -4.1480   -7.9106 C   0  0
   -4.9288   -2.3336   -6.6018 C   0  0
   -0.4557   -4.0659   -8.1657 C   0  0
   -1.1654   -3.2564   -7.0798 C   0  0
   -2.6698   -3.1526   -7.3592 C   0  0
   -3.4414   -2.4223   -6.2392 C   0  0  2  0  0  0
   -3.3167   -6.0660   -1.4769 N   0  0
   -2.8326   -3.5564   -2.8237 N   0  0
   -2.7602   -2.5523   -3.7711 N   0  0
   -3.6970   -7.3356   -1.2545 N   0  0
   -3.6775   -4.3494   -4.7373 O   0  0
   -6.2271  -13.5632   -2.3873 Cl  0  0
   -2.8662   -9.7850    4.0556 Cl  0  0
   -5.1319   -5.9454    1.0481 Cl  0  0
   -3.3489   -9.9658   -3.9007 H   0  0
   -6.2000   -8.9758   -0.8159 H   0  0
   -2.2323   -9.4636   -0.7408 H   0  0
   -4.1692  -12.2793   -3.9156 H   0  0
   -7.0189  -11.2900   -0.8318 H   0  0
   -1.8784  -10.4915    1.4598 H   0  0
   -4.3932   -7.5066    3.2783 H   0  0
   -3.8650   -7.5481   -5.3956 H   0  0
   -5.5160   -7.8850   -4.8193 H   0  0
   -5.0368   -6.2257   -5.1719 H   0  0
    1.2345   -4.6050   -6.9351 H   0  0
    1.4949   -3.1520   -7.9157 H   0  0
    1.5363   -4.7557   -8.6746 H   0  0
   -5.3780   -3.3312   -6.6632 H   0  0
   -5.4961   -1.7565   -5.8633 H   0  0
   -5.0600   -1.8484   -7.5751 H   0  0
   -0.6288   -3.6063   -9.1458 H   0  0
   -0.8696   -5.0802   -8.2050 H   0  0
   -1.0054   -3.7323   -6.1047 H   0  0
   -0.7207   -2.2559   -7.0295 H   0  0
   -2.8281   -2.6573   -8.3253 H   0  0
   -3.0757   -4.1676   -7.4615 H   0  0
   -3.0642   -1.3913   -6.1967 H   0  0
  1  4  1  0
  1  8  2  0
  2  5  2  0
  2  8  1  0
  3  6  1  0
  3 10  2  0
  4 11  2  0
  5 11  1  0
  6 12  2  0
  7 12  1  0
  7 13  2  0
  8 15  1  0
  9 14  1  0
  9 15  2  0
  9 18  1  0
 10 13  1  0
 10 28  1  0
 11 30  1  0
 12 31  1  0
 13 32  1  0
 14 16  1  0
 14 25  2  0
 15 28  1  0
 16 26  2  0
 16 29  1  0
 17 24  1  0
 17 27  2  0
 17 29  1  0
 19 21  1  0
 20 24  1  0
 21 22  1  0
 22 23  1  0
 23 24  1  0
 25 28  1  0
 26 27  1  0
  1 33  1  0
  2 34  1  0
  3 35  1  0
  4 36  1  0
  5 37  1  0
  6 38  1  0
  7 39  1  0
 18 40  1  0
 18 41  1  0
 18 42  1  0
 19 43  1  0
 19 44  1  0
 19 45  1  0
 20 46  1  0
 20 47  1  0
 20 48  1  0
 21 49  1  0
 21 50  1  0
 22 51  1  0
 22 52  1  0
 23 53  1  0
 23 54  1  0
 24 55  1  0
M  END
> <Name>
4

> <Experimental_pIC50>
7.82

> <original_article_set>
training

$$$$
40
  SciTegic08162114073D

 60 64  0  0  0  0            999 V2000
   -2.0085   -8.7828    2.6673 C   0  0
   -0.7822   -8.1361    2.8210 C   0  0
   -3.1780   -8.1796    3.1300 C   0  0
   -0.4029   -4.9436    8.0565 C   0  0
    1.5407   -3.5157    8.1999 C   0  0
   -1.0085   -1.3177    9.2030 C   0  0
   -0.7254   -6.8861    3.4375 C   0  0
   -3.1212   -6.9296    3.7464 C   0  0
    0.1490   -5.7914    9.0169 C   0  0
    2.0926   -4.3634    9.1604 C   0  0
   -0.8274   -0.6260   10.4006 C   0  0
    0.6593    0.9172    9.2846 C   0  0
    0.2930   -3.8058    7.6480 C   0  0
   -0.6469   -3.1833    5.3542 C   0  0
   -0.3557   -0.8920    8.0461 C   0  0
   -1.8949   -6.2829    3.9002 C   0  0
    1.3967   -5.5013    9.5689 C   0  0
    0.0065    0.4914   10.4414 C   0  0
    0.4782    0.2254    8.0869 C   0  0
   -1.1380   -1.9531    4.8774 C   0  0
   -0.2784   -2.9261    6.6521 C   0  0
   -1.6626   -1.6961    3.5216 C   0  0
   -2.2693   -1.9410    1.5246 C   0  0
   -2.3738   -1.7257   -0.9831 C   0  0
   -3.9230   -3.3120    0.2084 C   0  0
   -1.5091   -3.8554   -0.0352 C   0  0
   -0.5474   -4.4630    4.6268 C   0  0
   -2.5057   -2.6993    0.2080 C   0  0
   -1.0877   -0.9863    5.7977 N   0  0
   -2.1080   -0.5236    3.1348 N   0  0
   -2.5073   -0.6848    1.8211 N   0  0
   -0.5606   -1.6089    6.8657 N   0  0
   -1.7319   -2.6510    2.5541 O   0  0
   -1.8396   -5.0580    4.5062 O   0  0
    2.0770   -6.5456   10.7555 Cl  0  0
    0.2291    1.3444   11.9195 Cl  0  0
    1.3093    0.7917    6.6804 Cl  0  0
   -2.0531   -9.7558    2.1869 H   0  0
    0.1286   -8.6058    2.4610 H   0  0
   -4.1325   -8.6838    3.0098 H   0  0
   -1.3764   -5.1832    7.6356 H   0  0
    2.0952   -2.6323    7.8918 H   0  0
   -1.6619   -2.1869    9.1874 H   0  0
    0.2331   -6.3883    3.5555 H   0  0
   -4.0352   -6.4653    4.1065 H   0  0
   -0.4045   -6.6748    9.3254 H   0  0
    3.0660   -4.1254    9.5814 H   0  0
   -1.3426   -0.9691   11.2943 H   0  0
    1.3093    1.7889    9.3190 H   0  0
   -2.5381   -2.2422   -1.9360 H   0  0
   -3.1012   -0.9080   -0.9328 H   0  0
   -1.3746   -1.2754   -1.0156 H   0  0
   -4.1364   -3.8637   -0.7136 H   0  0
   -4.0491   -4.0161    1.0393 H   0  0
   -4.6889   -2.5342    0.3111 H   0  0
   -1.7181   -4.3641   -0.9841 H   0  0
   -0.4755   -3.4936   -0.0852 H   0  0
   -1.5683   -4.6123    0.7556 H   0  0
   -0.1368   -4.3336    3.6096 H   0  0
    0.1127   -5.1817    5.1442 H   0  0
  1  2  2  0
  1  3  1  0
  2  7  1  0
  3  8  2  0
  4  9  1  0
  4 13  2  0
  5 10  2  0
  5 13  1  0
  6 11  1  0
  6 15  2  0
  7 16  2  0
  8 16  1  0
  9 17  2  0
 10 17  1  0
 11 18  2  0
 12 18  1  0
 12 19  2  0
 13 21  1  0
 14 20  1  0
 14 21  2  0
 14 27  1  0
 15 19  1  0
 15 32  1  0
 16 34  1  0
 17 35  1  0
 18 36  1  0
 19 37  1  0
 20 22  1  0
 20 29  2  0
 21 32  1  0
 22 30  2  0
 22 33  1  0
 23 28  1  0
 23 31  2  0
 23 33  1  0
 24 28  1  0
 25 28  1  0
 26 28  1  0
 27 34  1  0
 29 32  1  0
 30 31  1  0
  1 38  1  0
  2 39  1  0
  3 40  1  0
  4 41  1  0
  5 42  1  0
  6 43  1  0
  7 44  1  0
  8 45  1  0
  9 46  1  0
 10 47  1  0
 11 48  1  0
 12 49  1  0
 24 50  1  0
 24 51  1  0
 24 52  1  0
 25 53  1  0
 25 54  1  0
 25 55  1  0
 26 56  1  0
 26 57  1  0
 26 58  1  0
 27 59  1  0
 27 60  1  0
M  END
> <Name>
40

> <Experimental_pIC50>
7.54

> <original_article_set>
training

$$$$
42
  SciTegic08162114073D

 65 69  0  0  0  0            999 V2000
    0.4565   -3.3563   -5.6601 C   0  0
   -1.0163   -1.4999   -6.1311 C   0  0
   -2.6332   -4.1111   -7.8338 C   0  0
    1.4985   -2.6943   -6.3094 C   0  0
    0.0257   -0.8379   -6.7804 C   0  0
   -2.9653   -3.8985   -9.1717 C   0  0
   -4.8717   -2.5807   -8.4892 C   0  0
   -0.8010   -2.7591   -5.5710 C   0  0
   -1.9801   -3.8762   -3.5977 C   0  0
   -3.4205   -3.5586   -6.8235 C   0  0
    1.2832   -1.4351   -6.8695 C   0  0
   -4.0845   -3.1333   -9.4994 C   0  0
   -4.5397   -2.7933   -7.1512 C   0  0
   -3.2540   -4.4702   -3.5190 C   0  0
   -1.8822   -3.4447   -4.8979 C   0  0
   -3.8463   -5.0944   -2.3202 C   0  0
   -4.1372   -5.8084   -0.3653 C   0  0
   -1.0005   -0.2484    0.0633 C   0  0
   -0.7536   -1.6260    0.6688 C   0  0
   -1.9643   -0.3280   -1.1158 C   0  0
   -0.2917   -2.6279   -0.3797 C   0  0
   -1.4984   -1.3347   -2.1577 C   0  0
   -4.9345   -6.8187    1.8001 C   0  0
   -3.5001   -4.7505    1.8305 C   0  0
   -2.5084   -6.9618    1.2755 C   0  0
   -0.9560   -3.7430   -2.5094 C   0  0
   -3.7858   -6.0724    1.0356 C   0  0
   -3.9178   -4.4220   -4.6770 N   0  0
   -5.0429   -5.6337   -2.3088 N   0  0
   -5.2343   -6.1032   -1.0227 N   0  0
   -3.0578   -3.7926   -5.4956 N   0  0
   -1.3012   -2.6809   -1.5021 N   0  3
   -3.2057   -5.1654   -1.1213 O   0  0
    2.5691   -0.6170   -7.6687 Cl  0  0
   -4.4932   -2.8713  -11.1505 Cl  0  0
   -5.5467   -2.0879   -5.9355 Cl  0  0
    0.6399   -4.3373   -5.2285 H   0  0
   -1.9910   -1.0213   -6.0696 H   0  0
   -1.7575   -4.7099   -7.5945 H   0  0
    2.4732   -3.1720   -6.3716 H   0  0
   -0.1566    0.1425   -7.2127 H   0  0
   -2.3426   -4.3352   -9.9485 H   0  0
   -5.7443   -1.9843   -8.7473 H   0  0
   -1.4032    0.4262    0.8271 H   0  0
   -0.0476    0.1790   -0.2723 H   0  0
    0.0021   -1.5484    1.4585 H   0  0
   -1.6730   -1.9890    1.1450 H   0  0
   -2.9631   -0.6056   -0.7566 H   0  0
   -2.0584    0.6607   -1.5788 H   0  0
    0.6748   -2.3483   -0.8137 H   0  0
   -0.2238   -3.6326    0.0500 H   0  0
   -2.2538   -1.4571   -2.9409 H   0  0
   -0.5445   -1.0416   -2.6104 H   0  0
   -4.6973   -7.0283    2.8497 H   0  0
   -5.8597   -6.2322    1.7923 H   0  0
   -5.1474   -7.7755    1.3087 H   0  0
   -3.2397   -4.9652    2.8727 H   0  0
   -2.6794   -4.1566    1.4113 H   0  0
   -4.3974   -4.1205    1.8386 H   0  0
   -2.2875   -7.1304    2.3364 H   0  0
   -2.6353   -7.9475    0.8128 H   0  0
   -1.6237   -6.4884    0.8339 H   0  0
   -0.8454   -4.6800   -1.9530 H   0  0
    0.0252   -3.4806   -2.9195 H   0  0
   -2.2035   -2.9547   -1.0890 H   0  0
  1  4  1  0
  1  8  2  0
  2  5  2  0
  2  8  1  0
  3  6  1  0
  3 10  2  0
  4 11  2  0
  5 11  1  0
  6 12  2  0
  7 12  1  0
  7 13  2  0
  8 15  1  0
  9 14  1  0
  9 15  2  0
  9 26  1  0
 10 13  1  0
 10 31  1  0
 11 34  1  0
 12 35  1  0
 13 36  1  0
 14 16  1  0
 14 28  2  0
 15 31  1  0
 16 29  2  0
 16 33  1  0
 17 27  1  0
 17 30  2  0
 17 33  1  0
 18 19  1  0
 18 20  1  0
 19 21  1  0
 20 22  1  0
 21 32  1  0
 22 32  1  0
 23 27  1  0
 24 27  1  0
 25 27  1  0
 26 32  1  0
 28 31  1  0
 29 30  1  0
  1 37  1  0
  2 38  1  0
  3 39  1  0
  4 40  1  0
  5 41  1  0
  6 42  1  0
  7 43  1  0
 18 44  1  0
 18 45  1  0
 19 46  1  0
 19 47  1  0
 20 48  1  0
 20 49  1  0
 21 50  1  0
 21 51  1  0
 22 52  1  0
 22 53  1  0
 23 54  1  0
 23 55  1  0
 23 56  1  0
 24 57  1  0
 24 58  1  0
 24 59  1  0
 25 60  1  0
 25 61  1  0
 25 62  1  0
 26 63  1  0
 26 64  1  0
 32 65  1  0
M  CHG  1  32   1
M  END
> <Name>
42

> <Experimental_pIC50>
7.34

> <original_article_set>
training

$$$$
41
  SciTegic08162114073D

 59 63  0  0  0  0            999 V2000
   -3.1537   -8.1510    3.1375 C   0  0
   -1.9705   -8.7258    2.6873 C   0  0
   -0.4029   -4.9436    8.0565 C   0  0
    1.5407   -3.5157    8.1999 C   0  0
   -1.0085   -1.3177    9.2030 C   0  0
    0.1490   -5.7914    9.0169 C   0  0
    2.0926   -4.3634    9.1604 C   0  0
   -0.8274   -0.6260   10.4006 C   0  0
   -3.1239   -6.9063    3.7565 C   0  0
    0.6593    0.9172    9.2846 C   0  0
   -0.7931   -8.0208    2.8786 C   0  0
    0.2930   -3.8058    7.6480 C   0  0
   -0.6469   -3.1833    5.3542 C   0  0
   -0.3557   -0.8920    8.0461 C   0  0
    1.3967   -5.5013    9.5689 C   0  0
    0.0065    0.4914   10.4414 C   0  0
    0.4782    0.2254    8.0869 C   0  0
   -1.1380   -1.9531    4.8774 C   0  0
   -0.2784   -2.9261    6.6521 C   0  0
   -1.8949   -6.2829    3.9002 C   0  0
   -1.6626   -1.6961    3.5216 C   0  0
   -2.2693   -1.9410    1.5246 C   0  0
   -2.3738   -1.7257   -0.9831 C   0  0
   -3.9230   -3.3120    0.2084 C   0  0
   -1.5091   -3.8554   -0.0352 C   0  0
   -0.5474   -4.4630    4.6268 C   0  0
   -2.5057   -2.6993    0.2080 C   0  0
   -0.7246   -6.8098    3.4756 N   0  0
   -1.0877   -0.9863    5.7977 N   0  0
   -2.1080   -0.5236    3.1348 N   0  0
   -2.5073   -0.6848    1.8211 N   0  0
   -0.5606   -1.6089    6.8657 N   0  0
   -1.7319   -2.6510    2.5541 O   0  0
   -1.8396   -5.0580    4.5062 O   0  0
    2.0770   -6.5456   10.7555 Cl  0  0
    0.2291    1.3444   11.9195 Cl  0  0
    1.3093    0.7917    6.6804 Cl  0  0
   -4.0972   -8.6723    3.0055 H   0  0
   -1.9695   -9.6950    2.2019 H   0  0
   -1.3764   -5.1832    7.6356 H   0  0
    2.0952   -2.6323    7.8918 H   0  0
   -1.6619   -2.1869    9.1874 H   0  0
   -0.4045   -6.6748    9.3254 H   0  0
    3.0660   -4.1254    9.5814 H   0  0
   -1.3426   -0.9691   11.2943 H   0  0
   -4.0381   -6.4444    4.1129 H   0  0
    1.3093    1.7889    9.3190 H   0  0
    0.1561   -8.4264    2.5443 H   0  0
   -2.5381   -2.2422   -1.9360 H   0  0
   -3.1012   -0.9080   -0.9328 H   0  0
   -1.3746   -1.2754   -1.0156 H   0  0
   -4.1364   -3.8637   -0.7136 H   0  0
   -4.0491   -4.0161    1.0393 H   0  0
   -4.6889   -2.5342    0.3111 H   0  0
   -1.7181   -4.3641   -0.9841 H   0  0
   -0.4755   -3.4936   -0.0852 H   0  0
   -1.5683   -4.6123    0.7556 H   0  0
   -0.1368   -4.3336    3.6096 H   0  0
    0.1127   -5.1817    5.1442 H   0  0
  1  2  2  0
  1  9  1  0
  2 11  1  0
  3  6  1  0
  3 12  2  0
  4  7  2  0
  4 12  1  0
  5  8  1  0
  5 14  2  0
  6 15  2  0
  7 15  1  0
  8 16  2  0
  9 20  2  0
 10 16  1  0
 10 17  2  0
 11 28  2  0
 12 19  1  0
 13 18  1  0
 13 19  2  0
 13 26  1  0
 14 17  1  0
 14 32  1  0
 15 35  1  0
 16 36  1  0
 17 37  1  0
 18 21  1  0
 18 29  2  0
 19 32  1  0
 20 28  1  0
 20 34  1  0
 21 30  2  0
 21 33  1  0
 22 27  1  0
 22 31  2  0
 22 33  1  0
 23 27  1  0
 24 27  1  0
 25 27  1  0
 26 34  1  0
 29 32  1  0
 30 31  1  0
  1 38  1  0
  2 39  1  0
  3 40  1  0
  4 41  1  0
  5 42  1  0
  6 43  1  0
  7 44  1  0
  8 45  1  0
  9 46  1  0
 10 47  1  0
 11 48  1  0
 23 49  1  0
 23 50  1  0
 23 51  1  0
 24 52  1  0
 24 53  1  0
 24 54  1  0
 25 55  1  0
 25 56  1  0
 25 57  1  0
 26 58  1  0
 26 59  1  0
M  END
> <Name>
41

> <Experimental_pIC50>
7.61

> <original_article_set>
training

$$$$
43
  SciTegic08162114073D

 61 64  0  0  1  0            999 V2000
    1.5180   -4.4288    7.4092 C   0  0
   -0.3819   -4.0312    8.8477 C   0  0
    0.9430   -0.7930    8.5456 C   0  0
    2.0682   -5.2769    8.3702 C   0  0
    0.1683   -4.8794    9.8087 C   0  0
    1.1855   -0.0846    9.7224 C   0  0
   -1.1693    0.4258    9.9004 C   0  0
    0.2930   -3.8058    7.6480 C   0  0
   -0.6469   -3.1833    5.3542 C   0  0
   -0.3557   -0.8920    8.0461 C   0  0
    1.3933   -5.5023    9.5699 C   0  0
    0.1293    0.5248   10.3998 C   0  0
   -1.4118   -0.2826    8.7235 C   0  0
   -1.1380   -1.9531    4.8774 C   0  0
   -0.2784   -2.9261    6.6521 C   0  0
   -1.6626   -1.6961    3.5216 C   0  0
   -2.2693   -1.9410    1.5246 C   0  0
   -3.0916   -7.0321    3.4310 C   0  0
   -3.1127   -1.7424   -0.8408 C   0  0
   -3.4814   -3.8711    0.4511 C   0  0
   -1.2206   -3.2965   -0.4089 C   0  0
   -2.5479   -5.4207    5.7588 C   0  0
   -0.5474   -4.4630    4.6268 C   0  0
   -1.7225   -6.4203    3.6324 C   0  0
   -2.5057   -2.6993    0.2080 C   0  0
   -1.0877   -0.9863    5.7977 N   0  0
   -2.1080   -0.5236    3.1348 N   0  0
   -2.5073   -0.6848    1.8211 N   0  0
   -0.5606   -1.6089    6.8657 N   0  0
   -1.8568   -5.1627    4.4475 N   0  3  1  0  0  0
   -1.7319   -2.6510    2.5541 O   0  0
    2.0706   -6.5504   10.7549 Cl  0  0
    0.4294    1.3985   11.8519 Cl  0  0
   -3.0383   -0.3765    8.1446 Cl  0  0
    2.0560   -4.2631    6.4789 H   0  0
   -1.3379   -3.5529    9.0483 H   0  0
    1.7769   -1.2626    8.0292 H   0  0
    3.0239   -5.7553    8.1706 H   0  0
   -0.3683   -5.0453   10.7393 H   0  0
    2.2026   -0.0158   10.1000 H   0  0
   -1.9914    0.9021   10.4305 H   0  0
   -3.5299   -7.3037    4.3962 H   0  0
   -3.7704   -6.3293    2.9368 H   0  0
   -3.0342   -7.9380    2.8184 H   0  0
   -3.2914   -2.2592   -1.7909 H   0  0
   -4.0734   -1.3275   -0.5167 H   0  0
   -2.4410   -0.8992   -1.0408 H   0  0
   -3.6799   -4.4417   -0.4627 H   0  0
   -3.0772   -4.5759    1.1872 H   0  0
   -4.4451   -3.5099    0.8293 H   0  0
   -1.4403   -3.8260   -1.3439 H   0  0
   -0.4866   -2.5173   -0.6455 H   0  0
   -0.7467   -4.0187    0.2661 H   0  0
   -1.9149   -6.0906    6.3437 H   0  0
   -2.6759   -4.4612    6.2635 H   0  0
   -3.5133   -5.8823    5.5426 H   0  0
   -0.1372   -4.3378    3.6089 H   0  0
    0.1078   -5.1889    5.1407 H   0  0
   -1.2612   -6.1392    2.6817 H   0  0
   -1.0571   -7.0906    4.1834 H   0  0
   -2.4696   -4.5298    3.9120 H   0  0
  1  4  1  0
  1  8  2  0
  2  5  2  0
  2  8  1  0
  3  6  1  0
  3 10  2  0
  4 11  2  0
  5 11  1  0
  6 12  2  0
  7 12  1  0
  7 13  2  0
  8 15  1  0
  9 14  1  0
  9 15  2  0
  9 23  1  0
 10 13  1  0
 10 29  1  0
 11 32  1  0
 12 33  1  0
 13 34  1  0
 14 16  1  0
 14 26  2  0
 15 29  1  0
 16 27  2  0
 16 31  1  0
 17 25  1  0
 17 28  2  0
 17 31  1  0
 18 24  1  0
 19 25  1  0
 20 25  1  0
 21 25  1  0
 22 30  1  0
 23 30  1  0
 24 30  1  0
 26 29  1  0
 27 28  1  0
  1 35  1  0
  2 36  1  0
  3 37  1  0
  4 38  1  0
  5 39  1  0
  6 40  1  0
  7 41  1  0
 18 42  1  0
 18 43  1  0
 18 44  1  0
 19 45  1  0
 19 46  1  0
 19 47  1  0
 20 48  1  0
 20 49  1  0
 20 50  1  0
 21 51  1  0
 21 52  1  0
 21 53  1  0
 22 54  1  0
 22 55  1  0
 22 56  1  0
 23 57  1  0
 23 58  1  0
 24 59  1  0
 24 60  1  0
 30 61  1  0
M  CHG  1  30   1
M  END
> <Name>
43

> <Experimental_pIC50>
6.64

> <original_article_set>
training

$$$$
46
  SciTegic08162114073D

 59 63  0  0  0  0            999 V2000
   -1.6742   -2.5310    1.9594 C   0  0
   -4.0286   -2.3969    1.4338 C   0  0
   -4.0187   -4.8731    3.9239 C   0  0
   -1.4032   -2.9177    0.6470 C   0  0
   -3.7576   -2.7836    0.1213 C   0  0
   -4.6665   -6.0750    3.6388 C   0  0
   -6.7999   -5.0290    4.0767 C   0  0
   -2.9869   -2.2707    2.3529 C   0  0
   -2.8261   -0.7798    4.4226 C   0  0
   -4.7615   -3.7491    4.2855 C   0  0
   -2.4449   -3.0440   -0.2721 C   0  0
   -6.0571   -6.1529    3.7151 C   0  0
   -6.1521   -3.8270    4.3618 C   0  0
   -3.4290   -0.9141    5.6877 C   0  0
   -3.2691   -1.8696    3.7137 C   0  0
   -3.2690    0.0107    6.8263 C   0  0
   -2.9702    1.7426    7.9784 C   0  0
   -3.6179    1.7231    2.8254 C   0  0
   -1.8006    1.0435    1.5814 C   0  0
   -3.8345    2.3095    1.4602 C   0  0
   -2.6379    1.8590    0.6391 C   0  0
   -2.6610    3.5033    9.7532 C   0  0
   -3.8416    4.0767    7.6053 C   0  0
   -1.3774    3.7482    7.6379 C   0  0
   -1.9048    0.3076    3.9504 C   0  0
   -2.7205    3.1688    8.2217 C   0  0
   -4.1966   -2.0033    5.7800 N   0  0
   -3.3372   -0.3747    8.0791 N   0  0
   -3.1408    0.7646    8.8370 N   0  0
   -4.0791   -2.5632    4.5639 N   0  0
   -2.4401    1.0111    2.8004 N   0  0
   -4.3834    1.8830    3.7660 O   0  0
   -0.7387    0.5195    1.2746 O   0  0
   -3.0379    1.3440    6.6787 O   0  0
   -2.1107   -3.5189   -1.8921 Cl  0  0
   -6.8556   -7.6362    3.3629 Cl  0  0
   -7.1164   -2.4622    4.8056 Cl  0  0
   -0.8517   -2.4370    2.6643 H   0  0
   -5.0571   -2.1971    1.7255 H   0  0
   -2.9340   -4.8283    3.8598 H   0  0
   -0.3754   -3.1179    0.3545 H   0  0
   -4.5791   -2.8786   -0.5840 H   0  0
   -4.0749   -6.9428    3.3583 H   0  0
   -7.8844   -5.0923    4.1357 H   0  0
   -4.7716    1.9324    1.0402 H   0  0
   -3.8820    3.4002    1.5301 H   0  0
   -2.0595    2.7132    0.2751 H   0  0
   -2.9459    1.2417   -0.2098 H   0  0
   -2.4753    4.5633    9.9626 H   0  0
   -3.5998    3.2384   10.2517 H   0  0
   -1.8609    2.9241   10.2292 H   0  0
   -3.6402    5.1365    7.7956 H   0  0
   -3.9509    3.9613    6.5205 H   0  0
   -4.8079    3.8377    8.0651 H   0  0
   -1.2366    4.8159    7.8454 H   0  0
   -0.5156    3.2215    8.0641 H   0  0
   -1.3486    3.6255    6.5489 H   0  0
   -1.7343    1.0416    4.7455 H   0  0
   -0.9281   -0.0997    3.6688 H   0  0
  1  4  1  0
  1  8  2  0
  2  5  2  0
  2  8  1  0
  3  6  1  0
  3 10  2  0
  4 11  2  0
  5 11  1  0
  6 12  2  0
  7 12  1  0
  7 13  2  0
  8 15  1  0
  9 14  1  0
  9 15  2  0
  9 25  1  0
 10 13  1  0
 10 30  1  0
 11 35  1  0
 12 36  1  0
 13 37  1  0
 14 16  1  0
 14 27  2  0
 15 30  1  0
 16 28  2  0
 16 34  1  0
 17 26  1  0
 17 29  2  0
 17 34  1  0
 18 20  1  0
 18 31  1  0
 18 32  2  0
 19 21  1  0
 19 31  1  0
 19 33  2  0
 20 21  1  0
 22 26  1  0
 23 26  1  0
 24 26  1  0
 25 31  1  0
 27 30  1  0
 28 29  1  0
  1 38  1  0
  2 39  1  0
  3 40  1  0
  4 41  1  0
  5 42  1  0
  6 43  1  0
  7 44  1  0
 20 45  1  0
 20 46  1  0
 21 47  1  0
 21 48  1  0
 22 49  1  0
 22 50  1  0
 22 51  1  0
 23 52  1  0
 23 53  1  0
 23 54  1  0
 24 55  1  0
 24 56  1  0
 24 57  1  0
 25 58  1  0
 25 59  1  0
M  END
> <Name>
46

> <Experimental_pIC50>
6.54

> <original_article_set>
training

$$$$
44
  SciTegic08162114073D

 63 67  0  0  0  0            999 V2000
    0.8349   -0.1462    0.2276 C   0  0
   -0.5862    0.1234    2.1628 C   0  0
    1.2201    3.1346    2.2098 C   0  0
    1.4171   -1.2710    0.8118 C   0  0
   -0.0039   -1.0015    2.7470 C   0  0
    1.8479    3.4898    3.4036 C   0  0
   -0.2690    4.2407    4.2935 C   0  0
   -0.1668    0.5511    0.9031 C   0  0
   -1.4621    1.8420   -0.8823 C   0  0
   -0.1523    3.3325    2.0578 C   0  0
    0.9977   -1.6987    2.0715 C   0  0
    1.1034    4.0429    4.4455 C   0  0
   -0.8969    3.8855    3.0996 C   0  0
   -1.8081    3.2052   -0.9457 C   0  0
   -0.7712    1.7177    0.2982 C   0  0
   -2.5645    3.8574   -2.0319 C   0  0
   -3.6373    4.1986   -3.8063 C   0  0
   -3.6092   -0.1730   -0.4641 C   0  0
   -3.5145   -0.7182   -2.8880 C   0  0
   -5.0810   -0.5477   -0.5032 C   0  0
   -4.9911   -1.0652   -2.8017 C   0  0
   -4.9358    5.0880   -5.7732 C   0  0
   -5.3983    2.7710   -4.9051 C   0  0
   -3.3205    3.2435   -6.1860 C   0  0
   -1.7745    0.7642   -1.8782 C   0  0
   -4.2700    3.8462   -5.0835 C   0  0
   -1.3730    3.8972    0.1106 N   0  0
   -2.8574    5.1369   -2.0345 N   0  0
   -3.5633    5.3613   -3.2018 N   0  0
   -0.7466    2.9652    0.8489 N   0  0
   -3.2085    0.3204   -1.8344 N   0  3
   -3.0260    3.1910   -3.1253 O   0  0
   -5.3176   -1.5460   -1.4969 O   0  0
    1.7142   -3.0877    2.7917 Cl  0  0
    1.8788    4.4806    5.9182 Cl  0  0
   -2.5997    4.1507    2.9595 Cl  0  0
    1.1724    0.1749   -0.7549 H   0  0
   -1.3661    0.6564    2.7018 H   0  0
    1.8143    2.7044    1.4070 H   0  0
    2.1970   -1.8043    0.2739 H   0  0
   -0.3401   -1.3230    3.7294 H   0  0
    2.9181    3.3298    3.5080 H   0  0
   -0.8476    4.6724    5.1075 H   0  0
   -3.4212    0.6335    0.2511 H   0  0
   -2.9781   -1.0389   -0.2359 H   0  0
   -2.8821   -1.5871   -2.6759 H   0  0
   -3.2603   -0.2916   -3.8630 H   0  0
   -5.3805   -0.9665    0.4629 H   0  0
   -5.7178    0.3242   -0.6950 H   0  0
   -5.6260   -0.2061   -3.0493 H   0  0
   -5.2243   -1.8623   -3.5147 H   0  0
   -5.4160    4.8519   -6.7300 H   0  0
   -5.7042    5.5315   -5.1305 H   0  0
   -4.1790    5.8589   -5.9610 H   0  0
   -5.8595    2.5197   -5.8665 H   0  0
   -5.0422    1.8318   -4.4657 H   0  0
   -6.1879    3.1654   -4.2546 H   0  0
   -3.8390    2.9968   -7.1205 H   0  0
   -2.5254    3.9551   -6.4377 H   0  0
   -2.8516    2.3208   -5.8249 H   0  0
   -1.5811    1.1028   -2.9017 H   0  0
   -1.1637   -0.1275   -1.7006 H   0  0
   -3.7802    1.1505   -2.0437 H   0  0
  1  4  1  0
  1  8  2  0
  2  5  2  0
  2  8  1  0
  3  6  1  0
  3 10  2  0
  4 11  2  0
  5 11  1  0
  6 12  2  0
  7 12  1  0
  7 13  2  0
  8 15  1  0
  9 14  1  0
  9 15  2  0
  9 25  1  0
 10 13  1  0
 10 30  1  0
 11 34  1  0
 12 35  1  0
 13 36  1  0
 14 16  1  0
 14 27  2  0
 15 30  1  0
 16 28  2  0
 16 32  1  0
 17 26  1  0
 17 29  2  0
 17 32  1  0
 18 20  1  0
 18 31  1  0
 19 21  1  0
 19 31  1  0
 20 33  1  0
 21 33  1  0
 22 26  1  0
 23 26  1  0
 24 26  1  0
 25 31  1  0
 27 30  1  0
 28 29  1  0
  1 37  1  0
  2 38  1  0
  3 39  1  0
  4 40  1  0
  5 41  1  0
  6 42  1  0
  7 43  1  0
 18 44  1  0
 18 45  1  0
 19 46  1  0
 19 47  1  0
 20 48  1  0
 20 49  1  0
 21 50  1  0
 21 51  1  0
 22 52  1  0
 22 53  1  0
 22 54  1  0
 23 55  1  0
 23 56  1  0
 23 57  1  0
 24 58  1  0
 24 59  1  0
 24 60  1  0
 25 61  1  0
 25 62  1  0
 31 63  1  0
M  CHG  1  31   1
M  END
> <Name>
44

> <Experimental_pIC50>
6.87

> <original_article_set>
training

$$$$
47
  SciTegic08162114073D

 57 61  0  0  0  0            999 V2000
    2.7701   -5.8262    3.9658 C   0  0
    2.8407   -4.5870    3.2829 C   0  0
   -0.4029   -4.9436    8.0565 C   0  0
    1.5407   -3.5157    8.1999 C   0  0
   -1.0085   -1.3177    9.2030 C   0  0
    0.1490   -5.7914    9.0169 C   0  0
    2.0926   -4.3634    9.1604 C   0  0
   -0.8274   -0.6260   10.4006 C   0  0
    0.6593    0.9172    9.2846 C   0  0
    1.5172   -5.9132    4.5316 C   0  0
    1.6289   -3.9543    3.4523 C   0  0
    0.2930   -3.8058    7.6480 C   0  0
   -0.6469   -3.1833    5.3542 C   0  0
   -0.3557   -0.8920    8.0461 C   0  0
    1.3967   -5.5013    9.5689 C   0  0
    0.0065    0.4914   10.4414 C   0  0
    0.4782    0.2254    8.0869 C   0  0
   -1.1380   -1.9531    4.8774 C   0  0
   -0.2784   -2.9261    6.6521 C   0  0
   -1.6626   -1.6961    3.5216 C   0  0
   -2.2693   -1.9410    1.5246 C   0  0
   -2.3738   -1.7257   -0.9831 C   0  0
   -3.9230   -3.3120    0.2084 C   0  0
   -1.5091   -3.8554   -0.0352 C   0  0
   -0.5474   -4.4630    4.6268 C   0  0
   -2.5057   -2.6993    0.2080 C   0  0
   -1.0877   -0.9863    5.7977 N   0  0
   -2.1080   -0.5236    3.1348 N   0  0
   -2.5073   -0.6848    1.8211 N   0  0
    0.8324   -4.7696    4.2132 N   0  0
   -0.5606   -1.6089    6.8657 N   0  0
   -1.7319   -2.6510    2.5541 O   0  0
    2.0770   -6.5456   10.7555 Cl  0  0
    0.2291    1.3444   11.9195 Cl  0  0
    1.3093    0.7917    6.6804 Cl  0  0
    3.5472   -6.5740    4.0387 H   0  0
    3.6825   -4.1974    2.7278 H   0  0
   -1.3764   -5.1832    7.6356 H   0  0
    2.0952   -2.6323    7.8918 H   0  0
   -1.6619   -2.1869    9.1874 H   0  0
   -0.4045   -6.6748    9.3254 H   0  0
    3.0660   -4.1254    9.5814 H   0  0
   -1.3426   -0.9691   11.2943 H   0  0
    1.3093    1.7889    9.3190 H   0  0
    1.0608   -6.6896    5.1311 H   0  0
    1.2710   -2.9977    3.0960 H   0  0
   -2.5381   -2.2422   -1.9360 H   0  0
   -3.1012   -0.9080   -0.9328 H   0  0
   -1.3746   -1.2754   -1.0156 H   0  0
   -4.1364   -3.8637   -0.7136 H   0  0
   -4.0491   -4.0161    1.0393 H   0  0
   -4.6889   -2.5342    0.3111 H   0  0
   -1.7181   -4.3641   -0.9841 H   0  0
   -0.4755   -3.4936   -0.0852 H   0  0
   -1.5683   -4.6123    0.7556 H   0  0
   -0.9011   -5.3231    5.2287 H   0  0
   -1.1687   -4.4808    3.7099 H   0  0
  1  2  1  0
  1 10  2  0
  2 11  2  0
  3  6  1  0
  3 12  2  0
  4  7  2  0
  4 12  1  0
  5  8  1  0
  5 14  2  0
  6 15  2  0
  7 15  1  0
  8 16  2  0
  9 16  1  0
  9 17  2  0
 10 30  1  0
 11 30  1  0
 12 19  1  0
 13 18  1  0
 13 19  2  0
 13 25  1  0
 14 17  1  0
 14 31  1  0
 15 33  1  0
 16 34  1  0
 17 35  1  0
 18 20  1  0
 18 27  2  0
 19 31  1  0
 20 28  2  0
 20 32  1  0
 21 26  1  0
 21 29  2  0
 21 32  1  0
 22 26  1  0
 23 26  1  0
 24 26  1  0
 25 30  1  0
 27 31  1  0
 28 29  1  0
  1 36  1  0
  2 37  1  0
  3 38  1  0
  4 39  1  0
  5 40  1  0
  6 41  1  0
  7 42  1  0
  8 43  1  0
  9 44  1  0
 10 45  1  0
 11 46  1  0
 22 47  1  0
 22 48  1  0
 22 49  1  0
 23 50  1  0
 23 51  1  0
 23 52  1  0
 24 53  1  0
 24 54  1  0
 24 55  1  0
 25 56  1  0
 25 57  1  0
M  END
> <Name>
47

> <Experimental_pIC50>
7.42

> <original_article_set>
training

$$$$
45
  SciTegic08162114073D

 60 64  0  0  0  0            999 V2000
    2.7914   -5.4637    1.4704 C   0  0
    5.0516   -5.9094    2.1984 C   0  0
    3.2956   -6.1031    5.2341 C   0  0
    2.8288   -6.5982    0.6597 C   0  0
    5.0890   -7.0440    1.3878 C   0  0
    3.4877   -7.2414    6.0170 C   0  0
    5.5956   -6.3519    6.7932 C   0  0
    3.9028   -5.1193    2.2397 C   0  0
    3.6709   -2.6250    2.7468 C   0  0
    4.2536   -5.0892    5.2306 C   0  0
    3.9776   -7.3883    0.6184 C   0  0
    4.6376   -7.3658    6.7966 C   0  0
    5.4036   -5.2136    6.0102 C   0  0
    3.7357   -1.9379    3.9737 C   0  0
    3.8651   -3.9431    3.0807 C   0  0
    3.5884   -0.4815    4.1600 C   0  0
    3.3057    1.5693    3.7995 C   0  0
    4.8557   -2.6183   -0.6338 C   0  0
    6.2188   -2.1939   -1.1281 C   0  0
    6.9108   -1.6935    0.1341 C   0  0
    5.7742   -1.1698    0.9891 C   0  0
    3.7380    4.0447    3.6226 C   0  0
    1.5438    3.0922    2.8386 C   0  0
    3.6168    2.7331    1.5138 C   0  0
    3.4423   -2.0507    1.3786 C   0  0
    3.0721    2.7725    2.9910 C   0  0
    3.9539   -2.7522    5.0098 N   0  0
    3.6588    0.1027    5.3332 N   0  0
    3.4727    1.4519    5.0961 N   0  0
    4.0278   -3.9645    4.4347 N   0  0
    4.6612   -2.0032    0.6007 N   0  0
    4.0816   -3.3311   -1.2547 O   0  0
    3.3655    0.3839    3.1333 O   0  0
    4.0234   -8.7894   -0.3798 Cl  0  0
    4.8736   -8.7704    7.7625 Cl  0  0
    6.6197   -3.9848    6.0395 Cl  0  0
    1.8888   -4.8579    1.4919 H   0  0
    5.9259   -5.6540    2.7927 H   0  0
    2.3938   -6.0209    4.6319 H   0  0
    1.9553   -6.8542    0.0651 H   0  0
    5.9910   -7.6500    1.3650 H   0  0
    2.7327   -8.0235    6.0099 H   0  0
    6.4918   -6.4513    7.4020 H   0  0
    6.7524   -3.0342   -1.5786 H   0  0
    6.0927   -1.3910   -1.8612 H   0  0
    7.4079   -2.5294    0.6414 H   0  0
    7.6636   -0.9298   -0.0807 H   0  0
    5.9801   -1.2715    2.0583 H   0  0
    5.5275   -0.1301    0.7513 H   0  0
    3.5784    4.9581    3.0377 H   0  0
    3.3476    4.2365    4.6280 H   0  0
    4.8199    3.8915    3.7135 H   0  0
    1.3873    3.9918    2.2333 H   0  0
    0.9729    2.2847    2.3655 H   0  0
    1.1031    3.2787    3.8251 H   0  0
    3.4182    3.6534    0.9513 H   0  0
    4.7026    2.5818    1.5097 H   0  0
    3.1548    1.9095    0.9570 H   0  0
    2.7120   -2.6509    0.8249 H   0  0
    3.0453   -1.0320    1.4413 H   0  0
  1  4  1  0
  1  8  2  0
  2  5  2  0
  2  8  1  0
  3  6  1  0
  3 10  2  0
  4 11  2  0
  5 11  1  0
  6 12  2  0
  7 12  1  0
  7 13  2  0
  8 15  1  0
  9 14  1  0
  9 15  2  0
  9 25  1  0
 10 13  1  0
 10 30  1  0
 11 34  1  0
 12 35  1  0
 13 36  1  0
 14 16  1  0
 14 27  2  0
 15 30  1  0
 16 28  2  0
 16 33  1  0
 17 26  1  0
 17 29  2  0
 17 33  1  0
 18 19  1  0
 18 31  1  0
 18 32  2  0
 19 20  1  0
 20 21  1  0
 21 31  1  0
 22 26  1  0
 23 26  1  0
 24 26  1  0
 25 31  1  0
 27 30  1  0
 28 29  1  0
  1 37  1  0
  2 38  1  0
  3 39  1  0
  4 40  1  0
  5 41  1  0
  6 42  1  0
  7 43  1  0
 19 44  1  0
 19 45  1  0
 20 46  1  0
 20 47  1  0
 21 48  1  0
 21 49  1  0
 22 50  1  0
 22 51  1  0
 22 52  1  0
 23 53  1  0
 23 54  1  0
 23 55  1  0
 24 56  1  0
 24 57  1  0
 24 58  1  0
 25 59  1  0
 25 60  1  0
M  END
> <Name>
45

> <Experimental_pIC50>
7.03

> <original_article_set>
training

$$$$
48
  SciTegic08162114073D

 56 60  0  0  0  0            999 V2000
    1.5180   -4.4288    7.4092 C   0  0
   -0.3819   -4.0312    8.8477 C   0  0
    0.9430   -0.7930    8.5456 C   0  0
    2.0682   -5.2769    8.3702 C   0  0
    0.1683   -4.8794    9.8087 C   0  0
    1.1855   -0.0846    9.7224 C   0  0
   -3.7805   -6.0711    4.8958 C   0  0
   -1.1693    0.4258    9.9004 C   0  0
   -3.4821   -6.0353    3.5205 C   0  0
   -2.6987   -5.4760    5.4975 C   0  0
    0.2930   -3.8058    7.6480 C   0  0
   -0.6469   -3.1833    5.3542 C   0  0
   -0.3557   -0.8920    8.0461 C   0  0
    1.3933   -5.5023    9.5699 C   0  0
    0.1293    0.5248   10.3998 C   0  0
   -1.4118   -0.2826    8.7235 C   0  0
   -1.1380   -1.9531    4.8774 C   0  0
   -0.2784   -2.9261    6.6521 C   0  0
   -1.6626   -1.6961    3.5216 C   0  0
   -2.2693   -1.9410    1.5246 C   0  0
   -2.3738   -1.7257   -0.9831 C   0  0
   -3.9230   -3.3120    0.2084 C   0  0
   -1.5091   -3.8554   -0.0352 C   0  0
   -0.5474   -4.4630    4.6268 C   0  0
   -2.5057   -2.6993    0.2080 C   0  0
   -2.3031   -5.4626    3.2634 N   0  0
   -1.0877   -0.9863    5.7977 N   0  0
   -2.1080   -0.5236    3.1348 N   0  0
   -2.5073   -0.6848    1.8211 N   0  0
   -1.8512   -5.1330    4.4854 N   0  0
   -0.5606   -1.6089    6.8657 N   0  0
   -1.7319   -2.6510    2.5541 O   0  0
    2.0706   -6.5504   10.7549 Cl  0  0
    0.4294    1.3985   11.8519 Cl  0  0
   -3.0383   -0.3765    8.1446 Cl  0  0
    2.0560   -4.2631    6.4789 H   0  0
   -1.3379   -3.5529    9.0483 H   0  0
    1.7769   -1.2626    8.0292 H   0  0
    3.0239   -5.7553    8.1706 H   0  0
   -0.3683   -5.0453   10.7393 H   0  0
    2.2026   -0.0158   10.1000 H   0  0
   -4.6571   -6.4723    5.3824 H   0  0
   -1.9914    0.9021   10.4305 H   0  0
   -4.0762   -6.4027    2.6961 H   0  0
   -2.4672   -5.2742    6.5342 H   0  0
   -2.5381   -2.2422   -1.9360 H   0  0
   -3.1012   -0.9080   -0.9328 H   0  0
   -1.3746   -1.2754   -1.0156 H   0  0
   -4.1364   -3.8637   -0.7136 H   0  0
   -4.0491   -4.0161    1.0393 H   0  0
   -4.6889   -2.5342    0.3111 H   0  0
   -1.7181   -4.3641   -0.9841 H   0  0
   -0.4755   -3.4936   -0.0852 H   0  0
   -1.5683   -4.6123    0.7556 H   0  0
   -0.1363   -4.3410    3.6054 H   0  0
    0.1314   -5.1836    5.1242 H   0  0
  1  4  1  0
  1 11  2  0
  2  5  2  0
  2 11  1  0
  3  6  1  0
  3 13  2  0
  4 14  2  0
  5 14  1  0
  6 15  2  0
  7  9  1  0
  7 10  2  0
  8 15  1  0
  8 16  2  0
  9 26  2  0
 10 30  1  0
 11 18  1  0
 12 17  1  0
 12 18  2  0
 12 24  1  0
 13 16  1  0
 13 31  1  0
 14 33  1  0
 15 34  1  0
 16 35  1  0
 17 19  1  0
 17 27  2  0
 18 31  1  0
 19 28  2  0
 19 32  1  0
 20 25  1  0
 20 29  2  0
 20 32  1  0
 21 25  1  0
 22 25  1  0
 23 25  1  0
 24 30  1  0
 26 30  1  0
 27 31  1  0
 28 29  1  0
  1 36  1  0
  2 37  1  0
  3 38  1  0
  4 39  1  0
  5 40  1  0
  6 41  1  0
  7 42  1  0
  8 43  1  0
  9 44  1  0
 10 45  1  0
 21 46  1  0
 21 47  1  0
 21 48  1  0
 22 49  1  0
 22 50  1  0
 22 51  1  0
 23 52  1  0
 23 53  1  0
 23 54  1  0
 24 55  1  0
 24 56  1  0
M  END
> <Name>
48

> <Experimental_pIC50>
7.69

> <original_article_set>
training

$$$$
49
  SciTegic08162114073D

 56 60  0  0  0  0            999 V2000
   -0.4029   -4.9436    8.0565 C   0  0
    1.5407   -3.5157    8.1999 C   0  0
   -1.0085   -1.3177    9.2030 C   0  0
    0.1490   -5.7914    9.0169 C   0  0
    2.0926   -4.3634    9.1604 C   0  0
   -0.8274   -0.6260   10.4006 C   0  0
    0.6593    0.9172    9.2846 C   0  0
    2.8190   -4.6818    3.3382 C   0  0
    1.6452   -3.9753    3.4546 C   0  0
    1.5353   -5.9018    4.5189 C   0  0
    0.2930   -3.8058    7.6480 C   0  0
   -0.6469   -3.1833    5.3542 C   0  0
   -0.3557   -0.8920    8.0461 C   0  0
    1.3967   -5.5013    9.5689 C   0  0
    0.0065    0.4914   10.4414 C   0  0
    0.4782    0.2254    8.0869 C   0  0
   -1.1380   -1.9531    4.8774 C   0  0
   -0.2784   -2.9261    6.6521 C   0  0
   -1.6626   -1.6961    3.5216 C   0  0
   -2.2693   -1.9410    1.5246 C   0  0
   -2.3738   -1.7257   -0.9831 C   0  0
   -3.9230   -3.3120    0.2084 C   0  0
   -1.5091   -3.8554   -0.0352 C   0  0
   -0.5474   -4.4630    4.6268 C   0  0
   -2.5057   -2.6993    0.2080 C   0  0
    2.7440   -5.8803    4.0027 N   0  0
   -1.0877   -0.9863    5.7977 N   0  0
   -2.1080   -0.5236    3.1348 N   0  0
   -2.5073   -0.6848    1.8211 N   0  0
    0.8324   -4.7696    4.2132 N   0  0
   -0.5606   -1.6089    6.8657 N   0  0
   -1.7319   -2.6510    2.5541 O   0  0
    2.0770   -6.5456   10.7555 Cl  0  0
    0.2291    1.3444   11.9195 Cl  0  0
    1.3093    0.7917    6.6804 Cl  0  0
   -1.3764   -5.1832    7.6356 H   0  0
    2.0952   -2.6323    7.8918 H   0  0
   -1.6619   -2.1869    9.1874 H   0  0
   -0.4045   -6.6748    9.3254 H   0  0
    3.0660   -4.1254    9.5814 H   0  0
   -1.3426   -0.9691   11.2943 H   0  0
    1.3093    1.7889    9.3190 H   0  0
    3.7142   -4.3884    2.8096 H   0  0
    1.3304   -3.0124    3.0771 H   0  0
    1.1177   -6.7010    5.1160 H   0  0
   -2.5381   -2.2422   -1.9360 H   0  0
   -3.1012   -0.9080   -0.9328 H   0  0
   -1.3746   -1.2754   -1.0156 H   0  0
   -4.1364   -3.8637   -0.7136 H   0  0
   -4.0491   -4.0161    1.0393 H   0  0
   -4.6889   -2.5342    0.3111 H   0  0
   -1.7181   -4.3641   -0.9841 H   0  0
   -0.4755   -3.4936   -0.0852 H   0  0
   -1.5683   -4.6123    0.7556 H   0  0
   -0.9011   -5.3231    5.2287 H   0  0
   -1.1687   -4.4808    3.7099 H   0  0
  1  4  1  0
  1 11  2  0
  2  5  2  0
  2 11  1  0
  3  6  1  0
  3 13  2  0
  4 14  2  0
  5 14  1  0
  6 15  2  0
  7 15  1  0
  7 16  2  0
  8  9  2  0
  8 26  1  0
  9 30  1  0
 10 26  2  0
 10 30  1  0
 11 18  1  0
 12 17  1  0
 12 18  2  0
 12 24  1  0
 13 16  1  0
 13 31  1  0
 14 33  1  0
 15 34  1  0
 16 35  1  0
 17 19  1  0
 17 27  2  0
 18 31  1  0
 19 28  2  0
 19 32  1  0
 20 25  1  0
 20 29  2  0
 20 32  1  0
 21 25  1  0
 22 25  1  0
 23 25  1  0
 24 30  1  0
 27 31  1  0
 28 29  1  0
  1 36  1  0
  2 37  1  0
  3 38  1  0
  4 39  1  0
  5 40  1  0
  6 41  1  0
  7 42  1  0
  8 43  1  0
  9 44  1  0
 10 45  1  0
 21 46  1  0
 21 47  1  0
 21 48  1  0
 22 49  1  0
 22 50  1  0
 22 51  1  0
 23 52  1  0
 23 53  1  0
 23 54  1  0
 24 55  1  0
 24 56  1  0
M  END
> <Name>
49

> <Experimental_pIC50>
7.73

> <original_article_set>
training

$$$$
50
  SciTegic08162114073D

 55 59  0  0  0  0            999 V2000
    1.5180   -4.4288    7.4092 C   0  0
   -0.3819   -4.0312    8.8477 C   0  0
    0.9430   -0.7930    8.5456 C   0  0
    2.0682   -5.2769    8.3702 C   0  0
    0.1683   -4.8794    9.8087 C   0  0
    1.1855   -0.0846    9.7224 C   0  0
   -1.1693    0.4258    9.9004 C   0  0
   -3.4873   -6.0362    3.6093 C   0  0
   -2.7185   -5.4883    5.4710 C   0  0
    0.2930   -3.8058    7.6480 C   0  0
   -0.6469   -3.1833    5.3542 C   0  0
   -0.3557   -0.8920    8.0461 C   0  0
    1.3933   -5.5023    9.5699 C   0  0
    0.1293    0.5248   10.3998 C   0  0
   -1.4118   -0.2826    8.7235 C   0  0
   -1.1380   -1.9531    4.8774 C   0  0
   -0.2784   -2.9261    6.6521 C   0  0
   -1.6626   -1.6961    3.5216 C   0  0
   -2.2693   -1.9410    1.5246 C   0  0
   -2.3738   -1.7257   -0.9831 C   0  0
   -3.9230   -3.3120    0.2084 C   0  0
   -1.5091   -3.8554   -0.0352 C   0  0
   -0.5474   -4.4630    4.6268 C   0  0
   -2.5057   -2.6993    0.2080 C   0  0
   -3.7727   -6.0670    4.9443 N   0  0
   -2.3230   -5.4748    3.2768 N   0  0
   -1.0877   -0.9863    5.7977 N   0  0
   -2.1080   -0.5236    3.1348 N   0  0
   -2.5073   -0.6848    1.8211 N   0  0
   -1.8512   -5.1330    4.4854 N   0  0
   -0.5606   -1.6089    6.8657 N   0  0
   -1.7319   -2.6510    2.5541 O   0  0
    2.0706   -6.5504   10.7549 Cl  0  0
    0.4294    1.3985   11.8519 Cl  0  0
   -3.0383   -0.3765    8.1446 Cl  0  0
    2.0560   -4.2631    6.4789 H   0  0
   -1.3379   -3.5529    9.0483 H   0  0
    1.7769   -1.2626    8.0292 H   0  0
    3.0239   -5.7553    8.1706 H   0  0
   -0.3683   -5.0453   10.7393 H   0  0
    2.2026   -0.0158   10.1000 H   0  0
   -1.9914    0.9021   10.4305 H   0  0
   -4.1493   -6.4337    2.8546 H   0  0
   -2.5397   -5.3053    6.5211 H   0  0
   -2.5381   -2.2422   -1.9360 H   0  0
   -3.1012   -0.9080   -0.9328 H   0  0
   -1.3746   -1.2754   -1.0156 H   0  0
   -4.1364   -3.8637   -0.7136 H   0  0
   -4.0491   -4.0161    1.0393 H   0  0
   -4.6889   -2.5342    0.3111 H   0  0
   -1.7181   -4.3641   -0.9841 H   0  0
   -0.4755   -3.4936   -0.0852 H   0  0
   -1.5683   -4.6123    0.7556 H   0  0
   -0.1363   -4.3410    3.6054 H   0  0
    0.1314   -5.1836    5.1242 H   0  0
  1  4  1  0
  1 10  2  0
  2  5  2  0
  2 10  1  0
  3  6  1  0
  3 12  2  0
  4 13  2  0
  5 13  1  0
  6 14  2  0
  7 14  1  0
  7 15  2  0
  8 25  1  0
  8 26  2  0
  9 25  2  0
  9 30  1  0
 10 17  1  0
 11 16  1  0
 11 17  2  0
 11 23  1  0
 12 15  1  0
 12 31  1  0
 13 33  1  0
 14 34  1  0
 15 35  1  0
 16 18  1  0
 16 27  2  0
 17 31  1  0
 18 28  2  0
 18 32  1  0
 19 24  1  0
 19 29  2  0
 19 32  1  0
 20 24  1  0
 21 24  1  0
 22 24  1  0
 23 30  1  0
 26 30  1  0
 27 31  1  0
 28 29  1  0
  1 36  1  0
  2 37  1  0
  3 38  1  0
  4 39  1  0
  5 40  1  0
  6 41  1  0
  7 42  1  0
  8 43  1  0
  9 44  1  0
 20 45  1  0
 20 46  1  0
 20 47  1  0
 21 48  1  0
 21 49  1  0
 21 50  1  0
 22 51  1  0
 22 52  1  0
 22 53  1  0
 23 54  1  0
 23 55  1  0
M  END
> <Name>
50

> <Experimental_pIC50>
8.63

> <original_article_set>
training

$$$$
5
  SciTegic08162114073D

 52 55  0  0  0  0            999 V2000
    6.7689    7.4988    3.0655 C   0  0
    8.0654    6.5841    4.8874 C   0  0
    4.9835    7.1747    6.4639 C   0  0
    7.6670    8.5608    2.9595 C   0  0
    8.9636    7.6460    4.7814 C   0  0
    4.9979    7.9058    7.6516 C   0  0
    5.7290    5.9409    8.8523 C   0  0
    6.9680    6.5105    4.0296 C   0  0
    5.6836    4.4557    3.2168 C   0  0
    5.3418    5.8266    6.4703 C   0  0
    8.7644    8.6344    3.8174 C   0  0
    5.3707    7.2890    8.8458 C   0  0
    5.7145    5.2097    7.6645 C   0  0
    4.7431    3.6496    3.8856 C   0  0
    6.0373    5.4089    4.1404 C   0  0
    4.0512    2.4742    3.3204 C   0  0
    3.4146    0.9564    2.0139 C   0  0
    6.1800    4.3134    1.8348 C   0  0
    5.2430   -1.4153    1.4223 C   0  0
    1.4683    1.6180   -0.2428 C   0  0
    3.8189   -1.2931    0.8930 C   0  0
    1.9522    0.2068    0.0696 C   0  0
    3.3590    0.1703    0.7078 C   0  0
    4.5138    4.0551    5.1374 N   0  0
    3.1815    1.7599    3.9957 N   0  0
    2.7627    0.7614    3.1362 N   0  0
    5.3155    5.1264    5.2626 N   0  0
    4.2545    2.0268    2.0510 O   0  0
    9.8740    9.9431    3.6855 Cl  0  0
    5.3884    8.1919   10.3108 Cl  0  0
    6.1664    3.5418    7.7240 Cl  0  0
    5.9183    7.4553    2.3897 H   0  0
    8.2343    5.8211    5.6439 H   0  0
    4.6907    7.6700    5.5410 H   0  0
    7.4989    9.3241    2.2038 H   0  0
    9.8139    7.6909    5.4569 H   0  0
    4.7164    8.9557    7.6316 H   0  0
    6.0192    5.4619    9.7851 H   0  0
    5.5549    4.8825    1.1268 H   0  0
    7.2180    4.6728    1.7281 H   0  0
    6.1871    3.2606    1.5033 H   0  0
    5.9576   -0.8870    0.7841 H   0  0
    5.3086   -0.9796    2.4244 H   0  0
    5.5479   -2.4644    1.4896 H   0  0
    1.4348    2.2139    0.6750 H   0  0
    2.1356    2.1275   -0.9444 H   0  0
    0.4614    1.6014   -0.6716 H   0  0
    3.1399   -1.8357    1.5616 H   0  0
    3.7756   -1.8062   -0.0761 H   0  0
    1.9722   -0.3573   -0.8714 H   0  0
    1.2168   -0.2902    0.7134 H   0  0
    4.0486    0.6327   -0.0131 H   0  0
  1  4  1  0
  1  8  2  0
  2  5  2  0
  2  8  1  0
  3  6  1  0
  3 10  2  0
  4 11  2  0
  5 11  1  0
  6 12  2  0
  7 12  1  0
  7 13  2  0
  8 15  1  0
  9 14  1  0
  9 15  2  0
  9 18  1  0
 10 13  1  0
 10 27  1  0
 11 29  1  0
 12 30  1  0
 13 31  1  0
 14 16  1  0
 14 24  2  0
 15 27  1  0
 16 25  2  0
 16 28  1  0
 17 23  1  0
 17 26  2  0
 17 28  1  0
 19 21  1  0
 20 22  1  0
 21 23  1  0
 22 23  1  0
 24 27  1  0
 25 26  1  0
  1 32  1  0
  2 33  1  0
  3 34  1  0
  4 35  1  0
  5 36  1  0
  6 37  1  0
  7 38  1  0
 18 39  1  0
 18 40  1  0
 18 41  1  0
 19 42  1  0
 19 43  1  0
 19 44  1  0
 20 45  1  0
 20 46  1  0
 20 47  1  0
 21 48  1  0
 21 49  1  0
 22 50  1  0
 22 51  1  0
 23 52  1  0
M  END
> <Name>
5

> <Experimental_pIC50>
7.5

> <original_article_set>
training

$$$$
51
  SciTegic08162114073D

 55 59  0  0  0  0            999 V2000
    1.5180   -4.4288    7.4092 C   0  0
   -0.3819   -4.0312    8.8477 C   0  0
    0.9430   -0.7930    8.5456 C   0  0
    2.0682   -5.2769    8.3702 C   0  0
    0.1683   -4.8794    9.8087 C   0  0
    1.1855   -0.0846    9.7224 C   0  0
   -1.1693    0.4258    9.9004 C   0  0
   -3.7580   -6.0699    4.7978 C   0  0
   -2.7164   -5.4868    5.4746 C   0  0
    0.2930   -3.8058    7.6480 C   0  0
   -0.6469   -3.1833    5.3542 C   0  0
   -0.3557   -0.8920    8.0461 C   0  0
    1.3933   -5.5023    9.5699 C   0  0
    0.1293    0.5248   10.3998 C   0  0
   -1.4118   -0.2826    8.7235 C   0  0
   -1.1380   -1.9531    4.8774 C   0  0
   -0.2784   -2.9261    6.6521 C   0  0
   -1.6626   -1.6961    3.5216 C   0  0
   -2.2693   -1.9410    1.5246 C   0  0
   -2.3738   -1.7257   -0.9831 C   0  0
   -3.9230   -3.3120    0.2084 C   0  0
   -1.5091   -3.8554   -0.0352 C   0  0
   -0.5474   -4.4630    4.6268 C   0  0
   -2.5057   -2.6993    0.2080 C   0  0
   -3.5010   -6.0517    3.4550 N   0  0
   -1.0877   -0.9863    5.7977 N   0  0
   -2.1080   -0.5236    3.1348 N   0  0
   -2.5073   -0.6848    1.8211 N   0  0
   -2.3201   -5.4708    3.2732 N   0  0
   -1.8512   -5.1330    4.4854 N   0  0
   -0.5606   -1.6089    6.8657 N   0  0
   -1.7319   -2.6510    2.5541 O   0  0
    2.0706   -6.5504   10.7549 Cl  0  0
    0.4294    1.3985   11.8519 Cl  0  0
   -3.0383   -0.3765    8.1446 Cl  0  0
    2.0560   -4.2631    6.4789 H   0  0
   -1.3379   -3.5529    9.0483 H   0  0
    1.7769   -1.2626    8.0292 H   0  0
    3.0239   -5.7553    8.1706 H   0  0
   -0.3683   -5.0453   10.7393 H   0  0
    2.2026   -0.0158   10.1000 H   0  0
   -1.9914    0.9021   10.4305 H   0  0
   -4.6652   -6.4943    5.2002 H   0  0
   -2.5256   -5.3032    6.5223 H   0  0
   -2.5381   -2.2422   -1.9360 H   0  0
   -3.1012   -0.9080   -0.9328 H   0  0
   -1.3746   -1.2754   -1.0156 H   0  0
   -4.1364   -3.8637   -0.7136 H   0  0
   -4.0491   -4.0161    1.0393 H   0  0
   -4.6889   -2.5342    0.3111 H   0  0
   -1.7181   -4.3641   -0.9841 H   0  0
   -0.4755   -3.4936   -0.0852 H   0  0
   -1.5683   -4.6123    0.7556 H   0  0
   -0.1363   -4.3410    3.6054 H   0  0
    0.1314   -5.1836    5.1242 H   0  0
  1  4  1  0
  1 10  2  0
  2  5  2  0
  2 10  1  0
  3  6  1  0
  3 12  2  0
  4 13  2  0
  5 13  1  0
  6 14  2  0
  7 14  1  0
  7 15  2  0
  8  9  2  0
  8 25  1  0
  9 30  1  0
 10 17  1  0
 11 16  1  0
 11 17  2  0
 11 23  1  0
 12 15  1  0
 12 31  1  0
 13 33  1  0
 14 34  1  0
 15 35  1  0
 16 18  1  0
 16 26  2  0
 17 31  1  0
 18 27  2  0
 18 32  1  0
 19 24  1  0
 19 28  2  0
 19 32  1  0
 20 24  1  0
 21 24  1  0
 22 24  1  0
 23 30  1  0
 25 29  2  0
 26 31  1  0
 27 28  1  0
 29 30  1  0
  1 36  1  0
  2 37  1  0
  3 38  1  0
  4 39  1  0
  5 40  1  0
  6 41  1  0
  7 42  1  0
  8 43  1  0
  9 44  1  0
 20 45  1  0
 20 46  1  0
 20 47  1  0
 21 48  1  0
 21 49  1  0
 21 50  1  0
 22 51  1  0
 22 52  1  0
 22 53  1  0
 23 54  1  0
 23 55  1  0
M  END
> <Name>
51

> <Experimental_pIC50>
7.89

> <original_article_set>
training

$$$$
52
  SciTegic08162114073D

 54 58  0  0  0  0            999 V2000
    1.5180   -4.4288    7.4092 C   0  0
   -0.3819   -4.0312    8.8477 C   0  0
    0.9430   -0.7930    8.5456 C   0  0
    2.0682   -5.2769    8.3702 C   0  0
    0.1683   -4.8794    9.8087 C   0  0
    1.1855   -0.0846    9.7224 C   0  0
   -1.1693    0.4258    9.9004 C   0  0
   -3.4955   -6.0318    3.6813 C   0  0
    0.2930   -3.8058    7.6480 C   0  0
   -0.6469   -3.1833    5.3542 C   0  0
   -0.3557   -0.8920    8.0461 C   0  0
    1.3933   -5.5023    9.5699 C   0  0
    0.1293    0.5248   10.3998 C   0  0
   -1.4118   -0.2826    8.7235 C   0  0
   -1.1380   -1.9531    4.8774 C   0  0
   -0.2784   -2.9261    6.6521 C   0  0
   -1.6626   -1.6961    3.5216 C   0  0
   -2.2693   -1.9410    1.5246 C   0  0
   -2.3738   -1.7257   -0.9831 C   0  0
   -3.9230   -3.3120    0.2084 C   0  0
   -1.5091   -3.8554   -0.0352 C   0  0
   -0.5474   -4.4630    4.6268 C   0  0
   -2.5057   -2.6993    0.2080 C   0  0
   -3.6874   -6.0171    5.0309 N   0  0
   -2.3437   -5.4818    3.2885 N   0  0
   -1.0877   -0.9863    5.7977 N   0  0
   -2.1080   -0.5236    3.1348 N   0  0
   -2.5073   -0.6848    1.8211 N   0  0
   -2.6138   -5.4314    5.5465 N   0  0
   -0.5606   -1.6089    6.8657 N   0  0
   -1.8512   -5.1330    4.4854 N   0  0
   -1.7319   -2.6510    2.5541 O   0  0
    2.0706   -6.5504   10.7549 Cl  0  0
    0.4294    1.3985   11.8519 Cl  0  0
   -3.0383   -0.3765    8.1446 Cl  0  0
    2.0560   -4.2631    6.4789 H   0  0
   -1.3379   -3.5529    9.0483 H   0  0
    1.7769   -1.2626    8.0292 H   0  0
    3.0239   -5.7553    8.1706 H   0  0
   -0.3683   -5.0453   10.7393 H   0  0
    2.2026   -0.0158   10.1000 H   0  0
   -1.9914    0.9021   10.4305 H   0  0
   -4.1996   -6.4452    2.9760 H   0  0
   -2.5381   -2.2422   -1.9360 H   0  0
   -3.1012   -0.9080   -0.9328 H   0  0
   -1.3746   -1.2754   -1.0156 H   0  0
   -4.1364   -3.8637   -0.7136 H   0  0
   -4.0491   -4.0161    1.0393 H   0  0
   -4.6889   -2.5342    0.3111 H   0  0
   -1.7181   -4.3641   -0.9841 H   0  0
   -0.4755   -3.4936   -0.0852 H   0  0
   -1.5683   -4.6123    0.7556 H   0  0
   -0.1363   -4.3410    3.6054 H   0  0
    0.1314   -5.1836    5.1242 H   0  0
  1  4  1  0
  1  9  2  0
  2  5  2  0
  2  9  1  0
  3  6  1  0
  3 11  2  0
  4 12  2  0
  5 12  1  0
  6 13  2  0
  7 13  1  0
  7 14  2  0
  8 24  1  0
  8 25  2  0
  9 16  1  0
 10 15  1  0
 10 16  2  0
 10 22  1  0
 11 14  1  0
 11 30  1  0
 12 33  1  0
 13 34  1  0
 14 35  1  0
 15 17  1  0
 15 26  2  0
 16 30  1  0
 17 27  2  0
 17 32  1  0
 18 23  1  0
 18 28  2  0
 18 32  1  0
 19 23  1  0
 20 23  1  0
 21 23  1  0
 22 31  1  0
 24 29  2  0
 25 31  1  0
 26 30  1  0
 27 28  1  0
 29 31  1  0
  1 36  1  0
  2 37  1  0
  3 38  1  0
  4 39  1  0
  5 40  1  0
  6 41  1  0
  7 42  1  0
  8 43  1  0
 19 44  1  0
 19 45  1  0
 19 46  1  0
 20 47  1  0
 20 48  1  0
 20 49  1  0
 21 50  1  0
 21 51  1  0
 21 52  1  0
 22 53  1  0
 22 54  1  0
M  END
> <Name>
52

> <Experimental_pIC50>
8.47

> <original_article_set>
training

$$$$
54
  SciTegic08162114073D

 53 58  0  0  0  0            999 V2000
    1.8786   -1.0483   -0.1128 C   0  0
    2.8849   -1.6400    2.0025 C   0  0
    2.4305   -4.8016    0.5476 C   0  0
    0.8000   -0.4750    0.5607 C   0  0
    1.8063   -1.0666    2.6760 C   0  0
    1.7730   -5.7710    1.3049 C   0  0
    3.7973   -6.1594    2.5652 C   0  0
    7.2296    1.3500    0.7186 C   0  0
    7.0751    1.1988   -1.3575 C   0  0
    2.9210   -1.6309    0.6081 C   0  0
    4.9367   -1.6582   -0.9572 C   0  0
    3.7715   -4.5112    0.7990 C   0  0
    0.7638   -0.4841    1.9551 C   0  0
    2.4564   -6.4499    2.3137 C   0  0
    4.4549   -5.1901    1.8078 C   0  0
    5.7949   -2.7158   -1.3131 C   0  0
    4.0369   -2.2241   -0.0873 C   0  0
    6.9424   -2.6270   -2.2366 C   0  0
    8.3854   -1.9010   -3.5807 C   0  0
    8.4667   -0.3087   -5.6507 C   0  0
    9.4124   -1.4328   -5.9371 C   0  0
    9.2031   -0.9801   -4.4943 C   0  0
    4.9877   -0.2562   -1.4139 C   0  0
   10.3231   -0.2055   -3.8446 C   0  0
    7.8359    1.7470   -0.4387 N   0  0
    6.1417    0.5906    0.5737 N   0  0
    5.4696   -3.8664   -0.7179 N   0  0
    7.7082   -3.6518   -2.5301 N   0  0
    8.6575   -3.1742   -3.4142 N   0  0
    6.0648    0.5089   -0.7633 N   0  0
    4.3970   -3.5351    0.0209 N   0  0
    7.3083   -1.4764   -2.8650 O   0  0
   11.2255   -1.0414   -3.2930 F   0  0
   10.9613    0.5628   -4.7500 F   0  0
    9.8473    0.5986   -2.8728 F   0  0
   -0.5656    0.2251    2.7864 Cl  0  0
    1.6442   -7.6456    3.2478 Cl  0  0
    6.1170   -4.8661    2.1572 Cl  0  0
    1.8924   -1.0334   -1.1999 H   0  0
    3.6902   -2.0901    2.5785 H   0  0
    1.8839   -4.2809   -0.2353 H   0  0
   -0.0056   -0.0249   -0.0142 H   0  0
    1.7910   -1.0815    3.7627 H   0  0
    0.7279   -5.9869    1.0979 H   0  0
    4.3282   -6.6904    3.3525 H   0  0
    7.5908    1.6240    1.6986 H   0  0
    7.2039    1.2690   -2.4284 H   0  0
    8.7633    0.6888   -5.9533 H   0  0
    7.4061   -0.5027   -5.7624 H   0  0
    8.9879   -2.3824   -6.2414 H   0  0
   10.3449   -1.1914   -6.4341 H   0  0
    5.1473   -0.1702   -2.5067 H   0  0
    4.0436    0.2896   -1.2189 H   0  0
  1  4  1  0
  1 10  2  0
  2  5  2  0
  2 10  1  0
  3  6  1  0
  3 12  2  0
  4 13  2  0
  5 13  1  0
  6 14  2  0
  7 14  1  0
  7 15  2  0
  8 25  1  0
  8 26  2  0
  9 25  2  0
  9 30  1  0
 10 17  1  0
 11 16  1  0
 11 17  2  0
 11 23  1  0
 12 15  1  0
 12 31  1  0
 13 36  1  0
 14 37  1  0
 15 38  1  0
 16 18  1  0
 16 27  2  0
 17 31  1  0
 18 28  2  0
 18 32  1  0
 19 22  1  0
 19 29  2  0
 19 32  1  0
 20 21  1  0
 20 22  1  0
 21 22  1  0
 22 24  1  0
 23 30  1  0
 24 33  1  0
 24 34  1  0
 24 35  1  0
 26 30  1  0
 27 31  1  0
 28 29  1  0
  1 39  1  0
  2 40  1  0
  3 41  1  0
  4 42  1  0
  5 43  1  0
  6 44  1  0
  7 45  1  0
  8 46  1  0
  9 47  1  0
 20 48  1  0
 20 49  1  0
 21 50  1  0
 21 51  1  0
 23 52  1  0
 23 53  1  0
M  END
> <Name>
54

> <Experimental_pIC50>
8.82

> <original_article_set>
training

$$$$
53
  SciTegic08162114073D

 53 58  0  0  0  0            999 V2000
    1.8786   -1.0483   -0.1128 C   0  0
    2.8849   -1.6400    2.0025 C   0  0
    2.4305   -4.8016    0.5476 C   0  0
    0.8000   -0.4750    0.5607 C   0  0
    1.8063   -1.0666    2.6760 C   0  0
    1.7730   -5.7710    1.3049 C   0  0
    3.7973   -6.1594    2.5652 C   0  0
    7.2296    1.3500    0.7186 C   0  0
    7.0751    1.1988   -1.3575 C   0  0
    2.9210   -1.6309    0.6081 C   0  0
    4.9367   -1.6582   -0.9572 C   0  0
    3.7715   -4.5112    0.7990 C   0  0
    0.7638   -0.4841    1.9551 C   0  0
    2.4564   -6.4499    2.3137 C   0  0
    4.4549   -5.1901    1.8078 C   0  0
    5.7949   -2.7158   -1.3131 C   0  0
    4.0369   -2.2241   -0.0873 C   0  0
    6.9424   -2.6270   -2.2366 C   0  0
    8.3854   -1.9010   -3.5807 C   0  0
    8.4667   -0.3087   -5.6507 C   0  0
    9.4124   -1.4328   -5.9371 C   0  0
    9.2031   -0.9801   -4.4943 C   0  0
   10.3231   -0.2055   -3.8446 C   0  0
    4.9877   -0.2562   -1.4139 C   0  0
    7.8359    1.7470   -0.4387 N   0  0
    6.1417    0.5906    0.5737 N   0  0
    5.4696   -3.8664   -0.7179 N   0  0
    7.7082   -3.6518   -2.5301 N   0  0
    8.6575   -3.1742   -3.4142 N   0  0
    6.0648    0.5089   -0.7633 N   0  0
    4.3970   -3.5351    0.0209 N   0  0
    7.3083   -1.4764   -2.8650 O   0  0
   -0.5656    0.2251    2.7864 Cl  0  0
    1.6442   -7.6456    3.2478 Cl  0  0
    6.1170   -4.8661    2.1572 Cl  0  0
    1.8924   -1.0334   -1.1999 H   0  0
    3.6902   -2.0901    2.5785 H   0  0
    1.8839   -4.2809   -0.2353 H   0  0
   -0.0056   -0.0249   -0.0142 H   0  0
    1.7910   -1.0815    3.7627 H   0  0
    0.7279   -5.9869    1.0979 H   0  0
    4.3282   -6.6904    3.3525 H   0  0
    7.5908    1.6240    1.6986 H   0  0
    7.2039    1.2690   -2.4284 H   0  0
    8.7633    0.6888   -5.9533 H   0  0
    7.4061   -0.5027   -5.7624 H   0  0
    8.9879   -2.3824   -6.2414 H   0  0
   10.3449   -1.1914   -6.4341 H   0  0
   10.8411    0.4182   -4.5809 H   0  0
   11.0557   -0.8854   -3.3969 H   0  0
    9.9358    0.4476   -3.0554 H   0  0
    5.1473   -0.1702   -2.5067 H   0  0
    4.0436    0.2896   -1.2189 H   0  0
  1  4  1  0
  1 10  2  0
  2  5  2  0
  2 10  1  0
  3  6  1  0
  3 12  2  0
  4 13  2  0
  5 13  1  0
  6 14  2  0
  7 14  1  0
  7 15  2  0
  8 25  1  0
  8 26  2  0
  9 25  2  0
  9 30  1  0
 10 17  1  0
 11 16  1  0
 11 17  2  0
 11 24  1  0
 12 15  1  0
 12 31  1  0
 13 33  1  0
 14 34  1  0
 15 35  1  0
 16 18  1  0
 16 27  2  0
 17 31  1  0
 18 28  2  0
 18 32  1  0
 19 22  1  0
 19 29  2  0
 19 32  1  0
 20 21  1  0
 20 22  1  0
 21 22  1  0
 22 23  1  0
 24 30  1  0
 26 30  1  0
 27 31  1  0
 28 29  1  0
  1 36  1  0
  2 37  1  0
  3 38  1  0
  4 39  1  0
  5 40  1  0
  6 41  1  0
  7 42  1  0
  8 43  1  0
  9 44  1  0
 20 45  1  0
 20 46  1  0
 21 47  1  0
 21 48  1  0
 23 49  1  0
 23 50  1  0
 23 51  1  0
 24 52  1  0
 24 53  1  0
M  END
> <Name>
53

> <Experimental_pIC50>
8.7

> <original_article_set>
training

$$$$
56
  SciTegic08162114073D

 55 59  0  0  0  0            999 V2000
    1.5181   -4.4283    7.4081 C   0  0
   -0.3814   -4.0324    8.8478 C   0  0
    0.9430   -0.7930    8.5456 C   0  0
    1.1855   -0.0846    9.7224 C   0  0
    2.0688   -5.2772    8.3681 C   0  0
    0.1694   -4.8814    9.8078 C   0  0
   -1.1693    0.4258    9.9004 C   0  0
   -3.4873   -6.0362    3.6093 C   0  0
   -2.7185   -5.4883    5.4710 C   0  0
    0.2930   -3.8058    7.6480 C   0  0
   -0.6469   -3.1833    5.3542 C   0  0
   -0.3557   -0.8920    8.0461 C   0  0
    0.1293    0.5248   10.3998 C   0  0
   -1.4118   -0.2826    8.7235 C   0  0
    1.3945   -5.5038    9.5679 C   0  0
   -1.1380   -1.9531    4.8774 C   0  0
   -0.2784   -2.9261    6.6521 C   0  0
   -1.6626   -1.6961    3.5216 C   0  0
   -2.2693   -1.9410    1.5246 C   0  0
   -2.3738   -1.7257   -0.9831 C   0  0
   -3.9230   -3.3120    0.2084 C   0  0
   -1.5091   -3.8554   -0.0352 C   0  0
   -0.5474   -4.4630    4.6268 C   0  0
   -2.5057   -2.6993    0.2080 C   0  0
   -3.7727   -6.0670    4.9443 N   0  0
   -2.3230   -5.4748    3.2768 N   0  0
   -1.0877   -0.9863    5.7977 N   0  0
   -2.1080   -0.5236    3.1348 N   0  0
   -2.5073   -0.6848    1.8211 N   0  0
   -1.8512   -5.1330    4.4854 N   0  0
   -0.5606   -1.6089    6.8657 N   0  0
   -1.7319   -2.6510    2.5541 O   0  0
    0.4294    1.3985   11.8519 Cl  0  0
   -3.0383   -0.3765    8.1446 Cl  0  0
    2.1387   -6.6566   10.8675 Br  0  0
    2.0562   -4.2618    6.4779 H   0  0
   -1.3374   -3.5550    9.0493 H   0  0
    1.7769   -1.2626    8.0292 H   0  0
    2.2026   -0.0158   10.1000 H   0  0
    3.0242   -5.7547    8.1658 H   0  0
   -0.3695   -5.0481   10.7370 H   0  0
   -1.9914    0.9021   10.4305 H   0  0
   -4.1493   -6.4337    2.8546 H   0  0
   -2.5397   -5.3053    6.5211 H   0  0
   -2.5381   -2.2422   -1.9360 H   0  0
   -3.1012   -0.9080   -0.9328 H   0  0
   -1.3746   -1.2754   -1.0156 H   0  0
   -4.1364   -3.8637   -0.7136 H   0  0
   -4.0491   -4.0161    1.0393 H   0  0
   -4.6889   -2.5342    0.3111 H   0  0
   -1.7181   -4.3641   -0.9841 H   0  0
   -0.4755   -3.4936   -0.0852 H   0  0
   -1.5683   -4.6123    0.7556 H   0  0
   -0.1363   -4.3410    3.6054 H   0  0
    0.1314   -5.1836    5.1242 H   0  0
  1  5  1  0
  1 10  2  0
  2  6  2  0
  2 10  1  0
  3  4  1  0
  3 12  2  0
  4 13  2  0
  5 15  2  0
  6 15  1  0
  7 13  1  0
  7 14  2  0
  8 25  1  0
  8 26  2  0
  9 25  2  0
  9 30  1  0
 10 17  1  0
 11 16  1  0
 11 17  2  0
 11 23  1  0
 12 14  1  0
 12 31  1  0
 13 33  1  0
 14 34  1  0
 15 35  1  0
 16 18  1  0
 16 27  2  0
 17 31  1  0
 18 28  2  0
 18 32  1  0
 19 24  1  0
 19 29  2  0
 19 32  1  0
 20 24  1  0
 21 24  1  0
 22 24  1  0
 23 30  1  0
 26 30  1  0
 27 31  1  0
 28 29  1  0
  1 36  1  0
  2 37  1  0
  3 38  1  0
  4 39  1  0
  5 40  1  0
  6 41  1  0
  7 42  1  0
  8 43  1  0
  9 44  1  0
 20 45  1  0
 20 46  1  0
 20 47  1  0
 21 48  1  0
 21 49  1  0
 21 50  1  0
 22 51  1  0
 22 52  1  0
 22 53  1  0
 23 54  1  0
 23 55  1  0
M  END
> <Name>
56

> <Experimental_pIC50>
8.56

> <original_article_set>
training

$$$$
55
  SciTegic08162114073D

 63 69  0  0  0  0            999 V2000
    1.8786   -1.0483   -0.1128 C   0  0
    2.8849   -1.6400    2.0025 C   0  0
    7.7772    0.0376   -6.2695 C   0  0
    9.2194   -1.8134   -6.8446 C   0  0
    7.3270    0.0966   -7.5884 C   0  0
    8.7692   -1.7545   -8.1635 C   0  0
    2.4305   -4.8016    0.5476 C   0  0
    0.8000   -0.4750    0.5607 C   0  0
    1.8063   -1.0666    2.6760 C   0  0
    1.7730   -5.7710    1.3049 C   0  0
    3.7973   -6.1594    2.5652 C   0  0
    7.2296    1.3500    0.7186 C   0  0
    7.0751    1.1988   -1.3575 C   0  0
    2.9210   -1.6309    0.6081 C   0  0
    8.7235   -0.9173   -5.8976 C   0  0
    7.8229   -0.7995   -8.5354 C   0  0
    4.9367   -1.6582   -0.9572 C   0  0
    3.7715   -4.5112    0.7990 C   0  0
    0.7638   -0.4841    1.9551 C   0  0
    2.4564   -6.4499    2.3137 C   0  0
    4.4549   -5.1901    1.8078 C   0  0
    5.7949   -2.7158   -1.3131 C   0  0
    4.0369   -2.2241   -0.0873 C   0  0
    6.9424   -2.6270   -2.2366 C   0  0
    8.3854   -1.9010   -3.5807 C   0  0
   10.7078   -0.8666   -4.2265 C   0  0
    9.8191    0.2781   -3.8727 C   0  0
    9.2031   -0.9801   -4.4943 C   0  0
    7.3401   -0.7384   -9.9452 C   0  0
    4.9877   -0.2562   -1.4139 C   0  0
    7.8359    1.7470   -0.4387 N   0  0
    6.1417    0.5906    0.5737 N   0  0
    5.4696   -3.8664   -0.7179 N   0  0
    7.7082   -3.6518   -2.5301 N   0  0
    8.6575   -3.1742   -3.4142 N   0  0
    6.0648    0.5089   -0.7633 N   0  0
    4.3970   -3.5351    0.0209 N   0  0
    7.3083   -1.4764   -2.8650 O   0  0
   -0.5656    0.2251    2.7864 Cl  0  0
    1.6442   -7.6456    3.2478 Cl  0  0
    6.1170   -4.8661    2.1572 Cl  0  0
    1.8924   -1.0334   -1.1999 H   0  0
    3.6902   -2.0901    2.5785 H   0  0
    7.3843    0.7401   -5.5393 H   0  0
    9.9567   -2.5612   -6.5643 H   0  0
    6.5899    0.8445   -7.8691 H   0  0
    9.1615   -2.4561   -8.8950 H   0  0
    1.8839   -4.2809   -0.2353 H   0  0
   -0.0056   -0.0249   -0.0142 H   0  0
    1.7910   -1.0815    3.7627 H   0  0
    0.7279   -5.9869    1.0979 H   0  0
    4.3282   -6.6904    3.3525 H   0  0
    7.5908    1.6240    1.6986 H   0  0
    7.2039    1.2690   -2.4284 H   0  0
   11.3800   -0.7396   -5.0674 H   0  0
   11.1290   -1.4462   -3.4131 H   0  0
    9.6398    0.4704   -2.8207 H   0  0
    9.8928    1.1771   -4.4743 H   0  0
    7.9705   -0.0626  -10.5358 H   0  0
    7.3571   -1.7301  -10.4155 H   0  0
    6.3034   -0.3806   -9.9960 H   0  0
    5.1473   -0.1702   -2.5067 H   0  0
    4.0436    0.2896   -1.2189 H   0  0
  1  8  1  0
  1 14  2  0
  2  9  2  0
  2 14  1  0
  3  5  1  0
  3 15  2  0
  4  6  2  0
  4 15  1  0
  5 16  2  0
  6 16  1  0
  7 10  1  0
  7 18  2  0
  8 19  2  0
  9 19  1  0
 10 20  2  0
 11 20  1  0
 11 21  2  0
 12 31  1  0
 12 32  2  0
 13 31  2  0
 13 36  1  0
 14 23  1  0
 15 28  1  0
 16 29  1  0
 17 22  1  0
 17 23  2  0
 17 30  1  0
 18 21  1  0
 18 37  1  0
 19 39  1  0
 20 40  1  0
 21 41  1  0
 22 24  1  0
 22 33  2  0
 23 37  1  0
 24 34  2  0
 24 38  1  0
 25 28  1  0
 25 35  2  0
 25 38  1  0
 26 27  1  0
 26 28  1  0
 27 28  1  0
 30 36  1  0
 32 36  1  0
 33 37  1  0
 34 35  1  0
  1 42  1  0
  2 43  1  0
  3 44  1  0
  4 45  1  0
  5 46  1  0
  6 47  1  0
  7 48  1  0
  8 49  1  0
  9 50  1  0
 10 51  1  0
 11 52  1  0
 12 53  1  0
 13 54  1  0
 26 55  1  0
 26 56  1  0
 27 57  1  0
 27 58  1  0
 29 59  1  0
 29 60  1  0
 29 61  1  0
 30 62  1  0
 30 63  1  0
M  END
> <Name>
55

> <Experimental_pIC50>
8.96

> <original_article_set>
training

$$$$
57
  SciTegic08162114073D

 53 58  0  0  0  0            999 V2000
    1.8773   -1.0506   -0.1128 C   0  0
    2.8861   -1.6377    2.0025 C   0  0
    2.4349   -4.8024    0.5508 C   0  0
    1.7797   -5.7720    1.3097 C   0  0
    0.7988   -0.4773    0.5606 C   0  0
    1.8075   -1.0644    2.6760 C   0  0
    3.8063   -6.1567    2.5676 C   0  0
    7.2258    1.3559    0.7103 C   0  0
    7.0687    1.2028   -1.3655 C   0  0
    2.9210   -1.6309    0.6081 C   0  0
    4.9347   -1.6568   -0.9599 C   0  0
    3.7758   -4.5099    0.8001 C   0  0
    2.4654   -6.4492    2.3182 C   0  0
    4.4614   -5.1870    1.8085 C   0  0
    0.7638   -0.4841    1.9550 C   0  0
    5.7939   -2.7135   -1.3162 C   0  0
    4.0369   -2.2232   -0.0884 C   0  0
    6.9400   -2.6239   -2.2413 C   0  0
    8.3802   -1.8971   -3.5880 C   0  0
    8.4565   -0.3063   -5.6593 C   0  0
    9.4033   -1.4294   -5.9461 C   0  0
    9.1954   -0.9757   -4.5034 C   0  0
   10.3152   -0.1992   -3.8559 C   0  0
    4.9832   -0.2551   -1.4178 C   0  0
    7.8299    1.7528   -0.4482 N   0  0
    6.1387    0.5949    0.5675 N   0  0
    5.4710   -3.8641   -0.7196 N   0  0
    7.7068   -3.6479   -2.5350 N   0  0
    8.6543   -3.1697   -3.4208 N   0  0
    6.0602    0.5120   -0.7694 N   0  0
    4.3989   -3.5336    0.0204 N   0  0
    7.3034   -1.4733   -2.8712 O   0  0
    1.6561   -7.6452    3.2543 Cl  0  0
    6.1236   -4.8605    2.1555 Cl  0  0
   -0.6958    0.2956    2.8680 Br  0  0
    1.8897   -1.0373   -1.2002 H   0  0
    3.6922   -2.0857    2.5787 H   0  0
    1.8865   -4.2831   -0.2318 H   0  0
    0.7346   -5.9895    1.1043 H   0  0
   -0.0065   -0.0289   -0.0159 H   0  0
    1.7962   -1.0771    3.7629 H   0  0
    4.3389   -6.6863    3.3546 H   0  0
    7.5880    1.6312    1.6895 H   0  0
    7.1959    1.2723   -2.4366 H   0  0
    8.7513    0.6913   -5.9631 H   0  0
    7.3960   -0.5018   -5.7694 H   0  0
    8.9798   -2.3798   -6.2491 H   0  0
   10.3348   -1.1871   -6.4446 H   0  0
   10.8314    0.4247   -4.5934 H   0  0
   11.0494   -0.8777   -3.4086 H   0  0
    9.9280    0.4541   -3.0666 H   0  0
    5.1412   -0.1698   -2.5110 H   0  0
    4.0386    0.2895   -1.2221 H   0  0
  1  5  1  0
  1 10  2  0
  2  6  2  0
  2 10  1  0
  3  4  1  0
  3 12  2  0
  4 13  2  0
  5 15  2  0
  6 15  1  0
  7 13  1  0
  7 14  2  0
  8 25  1  0
  8 26  2  0
  9 25  2  0
  9 30  1  0
 10 17  1  0
 11 16  1  0
 11 17  2  0
 11 24  1  0
 12 14  1  0
 12 31  1  0
 13 33  1  0
 14 34  1  0
 15 35  1  0
 16 18  1  0
 16 27  2  0
 17 31  1  0
 18 28  2  0
 18 32  1  0
 19 22  1  0
 19 29  2  0
 19 32  1  0
 20 21  1  0
 20 22  1  0
 21 22  1  0
 22 23  1  0
 24 30  1  0
 26 30  1  0
 27 31  1  0
 28 29  1  0
  1 36  1  0
  2 37  1  0
  3 38  1  0
  4 39  1  0
  5 40  1  0
  6 41  1  0
  7 42  1  0
  8 43  1  0
  9 44  1  0
 20 45  1  0
 20 46  1  0
 21 47  1  0
 21 48  1  0
 23 49  1  0
 23 50  1  0
 23 51  1  0
 24 52  1  0
 24 53  1  0
M  END
> <Name>
57

> <Experimental_pIC50>
8.55

> <original_article_set>
training

$$$$
6
  SciTegic08162114073D

 49 52  0  0  0  0            999 V2000
    1.5180   -4.4288    7.4092 C   0  0
   -0.3819   -4.0312    8.8477 C   0  0
    0.9430   -0.7930    8.5456 C   0  0
    2.0682   -5.2769    8.3702 C   0  0
    0.1683   -4.8794    9.8087 C   0  0
    1.1855   -0.0846    9.7224 C   0  0
   -1.1693    0.4258    9.9004 C   0  0
    0.2930   -3.8058    7.6480 C   0  0
   -0.6469   -3.1833    5.3542 C   0  0
   -0.3557   -0.8920    8.0461 C   0  0
    1.3933   -5.5023    9.5699 C   0  0
    0.1293    0.5248   10.3998 C   0  0
   -1.4118   -0.2826    8.7235 C   0  0
   -1.1380   -1.9531    4.8774 C   0  0
   -0.2784   -2.9261    6.6521 C   0  0
   -1.6626   -1.6961    3.5216 C   0  0
   -2.2693   -1.9410    1.5246 C   0  0
   -0.5474   -4.4630    4.6268 C   0  0
   -2.3738   -1.7257   -0.9831 C   0  0
   -3.9230   -3.3120    0.2084 C   0  0
   -1.5091   -3.8554   -0.0352 C   0  0
   -2.5057   -2.6993    0.2080 C   0  0
   -1.0877   -0.9863    5.7977 N   0  0
   -2.1080   -0.5236    3.1348 N   0  0
   -2.5073   -0.6848    1.8211 N   0  0
   -0.5606   -1.6089    6.8657 N   0  0
   -1.7319   -2.6510    2.5541 O   0  0
    2.0706   -6.5504   10.7549 Cl  0  0
    0.4294    1.3985   11.8519 Cl  0  0
   -3.0383   -0.3765    8.1446 Cl  0  0
    2.0560   -4.2631    6.4789 H   0  0
   -1.3379   -3.5529    9.0483 H   0  0
    1.7769   -1.2626    8.0292 H   0  0
    3.0239   -5.7553    8.1706 H   0  0
   -0.3683   -5.0453   10.7393 H   0  0
    2.2026   -0.0158   10.1000 H   0  0
   -1.9914    0.9021   10.4305 H   0  0
    0.4239   -4.5543    4.1130 H   0  0
   -0.6528   -5.3315    5.2997 H   0  0
   -1.3398   -4.5700    3.8660 H   0  0
   -2.5381   -2.2422   -1.9360 H   0  0
   -3.1012   -0.9080   -0.9328 H   0  0
   -1.3746   -1.2754   -1.0156 H   0  0
   -4.1364   -3.8637   -0.7136 H   0  0
   -4.0491   -4.0161    1.0393 H   0  0
   -4.6889   -2.5342    0.3111 H   0  0
   -1.7181   -4.3641   -0.9841 H   0  0
   -0.4755   -3.4936   -0.0852 H   0  0
   -1.5683   -4.6123    0.7556 H   0  0
  1  4  1  0
  1  8  2  0
  2  5  2  0
  2  8  1  0
  3  6  1  0
  3 10  2  0
  4 11  2  0
  5 11  1  0
  6 12  2  0
  7 12  1  0
  7 13  2  0
  8 15  1  0
  9 14  1  0
  9 15  2  0
  9 18  1  0
 10 13  1  0
 10 26  1  0
 11 28  1  0
 12 29  1  0
 13 30  1  0
 14 16  1  0
 14 23  2  0
 15 26  1  0
 16 24  2  0
 16 27  1  0
 17 22  1  0
 17 25  2  0
 17 27  1  0
 19 22  1  0
 20 22  1  0
 21 22  1  0
 23 26  1  0
 24 25  1  0
  1 31  1  0
  2 32  1  0
  3 33  1  0
  4 34  1  0
  5 35  1  0
  6 36  1  0
  7 37  1  0
 18 38  1  0
 18 39  1  0
 18 40  1  0
 19 41  1  0
 19 42  1  0
 19 43  1  0
 20 44  1  0
 20 45  1  0
 20 46  1  0
 21 47  1  0
 21 48  1  0
 21 49  1  0
M  END
> <Name>
6

> <Experimental_pIC50>
8.12

> <original_article_set>
training

$$$$
58
  SciTegic08162114073D

 53 58  0  0  0  0            999 V2000
    1.8773   -1.0506   -0.1128 C   0  0
    2.8861   -1.6377    2.0025 C   0  0
    2.4349   -4.8024    0.5508 C   0  0
    1.7797   -5.7720    1.3097 C   0  0
    0.7988   -0.4773    0.5606 C   0  0
    1.8075   -1.0644    2.6760 C   0  0
    3.8063   -6.1567    2.5676 C   0  0
    7.2258    1.3559    0.7103 C   0  0
    7.0687    1.2028   -1.3655 C   0  0
    2.9210   -1.6309    0.6081 C   0  0
    4.9347   -1.6568   -0.9599 C   0  0
    3.7758   -4.5099    0.8001 C   0  0
    2.4654   -6.4492    2.3182 C   0  0
    4.4614   -5.1870    1.8085 C   0  0
    0.7638   -0.4841    1.9550 C   0  0
    5.7939   -2.7135   -1.3162 C   0  0
    4.0369   -2.2232   -0.0884 C   0  0
    6.9400   -2.6239   -2.2413 C   0  0
    8.3802   -1.8971   -3.5880 C   0  0
    8.4565   -0.3063   -5.6593 C   0  0
    9.4033   -1.4294   -5.9461 C   0  0
    9.1954   -0.9757   -4.5034 C   0  0
    4.9832   -0.2551   -1.4178 C   0  0
   10.3152   -0.1992   -3.8559 C   0  0
    7.8299    1.7528   -0.4482 N   0  0
    6.1387    0.5949    0.5675 N   0  0
    5.4710   -3.8641   -0.7196 N   0  0
    7.7068   -3.6479   -2.5350 N   0  0
    8.6543   -3.1697   -3.4208 N   0  0
    6.0602    0.5120   -0.7694 N   0  0
    4.3989   -3.5336    0.0204 N   0  0
    7.3034   -1.4733   -2.8712 O   0  0
   11.2195   -1.0333   -3.3048 F   0  0
   10.9511    0.5693   -4.7627 F   0  0
    9.8396    0.6051   -2.8841 F   0  0
    1.6561   -7.6452    3.2543 Cl  0  0
    6.1236   -4.8605    2.1555 Cl  0  0
   -0.6958    0.2956    2.8680 Br  0  0
    1.8897   -1.0373   -1.2002 H   0  0
    3.6922   -2.0857    2.5787 H   0  0
    1.8865   -4.2831   -0.2318 H   0  0
    0.7346   -5.9895    1.1043 H   0  0
   -0.0065   -0.0289   -0.0159 H   0  0
    1.7962   -1.0771    3.7629 H   0  0
    4.3389   -6.6863    3.3546 H   0  0
    7.5880    1.6312    1.6895 H   0  0
    7.1959    1.2723   -2.4366 H   0  0
    8.7513    0.6913   -5.9631 H   0  0
    7.3960   -0.5018   -5.7694 H   0  0
    8.9798   -2.3798   -6.2491 H   0  0
   10.3348   -1.1871   -6.4446 H   0  0
    5.1412   -0.1698   -2.5110 H   0  0
    4.0386    0.2895   -1.2221 H   0  0
  1  5  1  0
  1 10  2  0
  2  6  2  0
  2 10  1  0
  3  4  1  0
  3 12  2  0
  4 13  2  0
  5 15  2  0
  6 15  1  0
  7 13  1  0
  7 14  2  0
  8 25  1  0
  8 26  2  0
  9 25  2  0
  9 30  1  0
 10 17  1  0
 11 16  1  0
 11 17  2  0
 11 23  1  0
 12 14  1  0
 12 31  1  0
 13 36  1  0
 14 37  1  0
 15 38  1  0
 16 18  1  0
 16 27  2  0
 17 31  1  0
 18 28  2  0
 18 32  1  0
 19 22  1  0
 19 29  2  0
 19 32  1  0
 20 21  1  0
 20 22  1  0
 21 22  1  0
 22 24  1  0
 23 30  1  0
 24 33  1  0
 24 34  1  0
 24 35  1  0
 26 30  1  0
 27 31  1  0
 28 29  1  0
  1 39  1  0
  2 40  1  0
  3 41  1  0
  4 42  1  0
  5 43  1  0
  6 44  1  0
  7 45  1  0
  8 46  1  0
  9 47  1  0
 20 48  1  0
 20 49  1  0
 21 50  1  0
 21 51  1  0
 23 52  1  0
 23 53  1  0
M  END
> <Name>
58

> <Experimental_pIC50>
9.03

> <original_article_set>
training

$$$$
61
  SciTegic08162114073D

 46 49  0  0  0  0            999 V2000
    1.8786   -1.0483   -0.1128 C   0  0
    2.8849   -1.6400    2.0025 C   0  0
    2.4305   -4.8016    0.5476 C   0  0
    0.8000   -0.4750    0.5607 C   0  0
    1.8063   -1.0666    2.6760 C   0  0
    1.7730   -5.7710    1.3049 C   0  0
    3.7973   -6.1594    2.5652 C   0  0
    2.9210   -1.6309    0.6081 C   0  0
    4.9367   -1.6582   -0.9572 C   0  0
    3.7715   -4.5112    0.7990 C   0  0
    0.7638   -0.4841    1.9551 C   0  0
    2.4564   -6.4499    2.3137 C   0  0
    4.4549   -5.1901    1.8078 C   0  0
    5.7949   -2.7158   -1.3131 C   0  0
    4.0369   -2.2241   -0.0873 C   0  0
    6.9424   -2.6270   -2.2366 C   0  0
    8.3863   -1.9004   -3.5794 C   0  0
    4.9877   -0.2562   -1.4139 C   0  0
    9.0223   -1.2284   -5.9241 C   0  0
   10.5372   -0.6528   -3.9931 C   0  0
    9.0655   -0.8987   -4.4108 C   0  0
    5.4696   -3.8664   -0.7179 N   0  0
    7.7083   -3.6517   -2.5302 N   0  0
    8.6582   -3.1736   -3.4135 N   0  0
    4.3970   -3.5351    0.0209 N   0  0
    7.3087   -1.4761   -2.8642 O   0  0
   -0.5656    0.2251    2.7864 Cl  0  0
    1.6442   -7.6456    3.2478 Cl  0  0
    6.1170   -4.8661    2.1572 Cl  0  0
    1.8924   -1.0334   -1.1999 H   0  0
    3.6902   -2.0901    2.5785 H   0  0
    1.8839   -4.2809   -0.2353 H   0  0
   -0.0056   -0.0249   -0.0142 H   0  0
    1.7910   -1.0815    3.7627 H   0  0
    0.7279   -5.9869    1.0979 H   0  0
    4.3282   -6.6904    3.3525 H   0  0
    4.3852   -0.1126   -2.3260 H   0  0
    4.6084    0.4430   -0.6488 H   0  0
    6.0182    0.0691   -1.6389 H   0  0
    9.4874   -2.1980   -6.1327 H   0  0
    9.5401   -0.4749   -6.5276 H   0  0
    7.9827   -1.2761   -6.2672 H   0  0
   11.1047   -1.5881   -4.0535 H   0  0
   10.6197   -0.2764   -2.9676 H   0  0
   11.0212    0.0749   -4.6537 H   0  0
    8.5712    0.0963   -4.3193 H   0  0
  1  4  1  0
  1  8  2  0
  2  5  2  0
  2  8  1  0
  3  6  1  0
  3 10  2  0
  4 11  2  0
  5 11  1  0
  6 12  2  0
  7 12  1  0
  7 13  2  0
  8 15  1  0
  9 14  1  0
  9 15  2  0
  9 18  1  0
 10 13  1  0
 10 25  1  0
 11 27  1  0
 12 28  1  0
 13 29  1  0
 14 16  1  0
 14 22  2  0
 15 25  1  0
 16 23  2  0
 16 26  1  0
 17 21  1  0
 17 24  2  0
 17 26  1  0
 19 21  1  0
 20 21  1  0
 22 25  1  0
 23 24  1  0
  1 30  1  0
  2 31  1  0
  3 32  1  0
  4 33  1  0
  5 34  1  0
  6 35  1  0
  7 36  1  0
 18 37  1  0
 18 38  1  0
 18 39  1  0
 19 40  1  0
 19 41  1  0
 19 42  1  0
 20 43  1  0
 20 44  1  0
 20 45  1  0
 21 46  1  0
M  END
> <Name>
61

> <Experimental_pIC50>
7.6

> <original_article_set>
test

$$$$
59
  SciTegic08162114073D

 63 69  0  0  0  0            999 V2000
    1.8773   -1.0506   -0.1128 C   0  0
    2.8861   -1.6377    2.0025 C   0  0
    7.7656    0.0386   -6.2775 C   0  0
    9.2097   -1.8110   -6.8530 C   0  0
    7.3136    0.0958   -7.5958 C   0  0
    8.7575   -1.7537   -8.1714 C   0  0
    2.4349   -4.8024    0.5508 C   0  0
    1.7797   -5.7720    1.3097 C   0  0
    0.7988   -0.4773    0.5606 C   0  0
    1.8075   -1.0644    2.6760 C   0  0
    3.8063   -6.1567    2.5676 C   0  0
    7.2258    1.3559    0.7103 C   0  0
    7.0687    1.2028   -1.3655 C   0  0
    2.9210   -1.6309    0.6081 C   0  0
    8.7137   -0.9148   -5.9061 C   0  0
    7.8095   -0.8003   -8.5427 C   0  0
    4.9347   -1.6568   -0.9599 C   0  0
    3.7758   -4.5099    0.8001 C   0  0
    2.4654   -6.4492    2.3182 C   0  0
    4.4614   -5.1870    1.8085 C   0  0
    0.7638   -0.4841    1.9550 C   0  0
    5.7939   -2.7135   -1.3162 C   0  0
    4.0369   -2.2232   -0.0884 C   0  0
    6.9400   -2.6239   -2.2413 C   0  0
    8.3802   -1.8971   -3.5880 C   0  0
   10.7003   -0.8600   -4.2378 C   0  0
    9.8105    0.2838   -3.8836 C   0  0
    9.1954   -0.9757   -4.5034 C   0  0
    7.3246   -0.7410   -9.9519 C   0  0
    4.9832   -0.2551   -1.4178 C   0  0
    7.8299    1.7528   -0.4482 N   0  0
    6.1387    0.5949    0.5675 N   0  0
    5.4710   -3.8641   -0.7196 N   0  0
    7.7068   -3.6479   -2.5350 N   0  0
    8.6543   -3.1697   -3.4208 N   0  0
    6.0602    0.5120   -0.7694 N   0  0
    4.3989   -3.5336    0.0204 N   0  0
    7.3034   -1.4733   -2.8712 O   0  0
    1.6561   -7.6452    3.2543 Cl  0  0
    6.1236   -4.8605    2.1555 Cl  0  0
   -0.6958    0.2956    2.8680 Br  0  0
    1.8897   -1.0373   -1.2002 H   0  0
    3.6922   -2.0857    2.5787 H   0  0
    7.3728    0.7411   -5.5473 H   0  0
    9.9483   -2.5575   -6.5731 H   0  0
    6.5752    0.8425   -7.8761 H   0  0
    9.1498   -2.4554   -8.9028 H   0  0
    1.8865   -4.2831   -0.2318 H   0  0
    0.7346   -5.9895    1.1043 H   0  0
   -0.0065   -0.0289   -0.0159 H   0  0
    1.7962   -1.0771    3.7629 H   0  0
    4.3389   -6.6863    3.3546 H   0  0
    7.5880    1.6312    1.6895 H   0  0
    7.1959    1.2723   -2.4366 H   0  0
   11.3712   -0.7328   -5.0797 H   0  0
   11.1233   -1.4384   -3.4245 H   0  0
    9.6324    0.4767   -2.8316 H   0  0
    9.8821    1.1824   -4.4861 H   0  0
    7.9534   -0.0649  -10.5440 H   0  0
    7.3423   -1.7331  -10.4215 H   0  0
    6.2874   -0.3847  -10.0017 H   0  0
    5.1412   -0.1698   -2.5110 H   0  0
    4.0386    0.2895   -1.2221 H   0  0
  1  9  1  0
  1 14  2  0
  2 10  2  0
  2 14  1  0
  3  5  1  0
  3 15  2  0
  4  6  2  0
  4 15  1  0
  5 16  2  0
  6 16  1  0
  7  8  1  0
  7 18  2  0
  8 19  2  0
  9 21  2  0
 10 21  1  0
 11 19  1  0
 11 20  2  0
 12 31  1  0
 12 32  2  0
 13 31  2  0
 13 36  1  0
 14 23  1  0
 15 28  1  0
 16 29  1  0
 17 22  1  0
 17 23  2  0
 17 30  1  0
 18 20  1  0
 18 37  1  0
 19 39  1  0
 20 40  1  0
 21 41  1  0
 22 24  1  0
 22 33  2  0
 23 37  1  0
 24 34  2  0
 24 38  1  0
 25 28  1  0
 25 35  2  0
 25 38  1  0
 26 27  1  0
 26 28  1  0
 27 28  1  0
 30 36  1  0
 32 36  1  0
 33 37  1  0
 34 35  1  0
  1 42  1  0
  2 43  1  0
  3 44  1  0
  4 45  1  0
  5 46  1  0
  6 47  1  0
  7 48  1  0
  8 49  1  0
  9 50  1  0
 10 51  1  0
 11 52  1  0
 12 53  1  0
 13 54  1  0
 26 55  1  0
 26 56  1  0
 27 57  1  0
 27 58  1  0
 29 59  1  0
 29 60  1  0
 29 61  1  0
 30 62  1  0
 30 63  1  0
M  END
> <Name>
59

> <Experimental_pIC50>
8.87

> <original_article_set>
training

$$$$
62
  SciTegic08162114073D

 52 55  0  0  0  0            999 V2000
    5.6184   -6.1282   -9.5771 C   0  0
    4.7042   -7.9277   -8.2494 C   0  0
    6.4805   -6.1148   -5.8225 C   0  0
    6.3195   -7.0542  -10.3495 C   0  0
    5.4052   -8.8537   -9.0218 C   0  0
    7.3777   -6.8204   -5.0209 C   0  0
    5.5390   -7.6433   -3.6871 C   0  0
    4.8108   -6.5649   -8.5270 C   0  0
    3.1299   -4.6886   -8.0953 C   0  0
    5.1124   -6.1733   -5.5563 C   0  0
    6.2129   -8.4169  -10.0719 C   0  0
    6.9070   -7.5847   -3.9532 C   0  0
    4.6417   -6.9376   -4.4886 C   0  0
    2.7840   -4.0374   -6.8961 C   0  0
    4.0833   -5.6055   -7.7255 C   0  0
    1.7911   -2.9542   -6.7531 C   0  0
    0.3253   -1.5074   -7.1705 C   0  0
    2.5926   -4.4440   -9.4474 C   0  0
   -4.5006   -3.9816   -7.8621 C   0  0
   -0.6155   -0.7149   -8.0257 C   0  0
   -3.5310   -3.2134   -8.7462 C   0  0
   -1.6028   -1.5829   -8.8120 C   0  0
   -2.5514   -2.3843   -7.9148 C   0  0
    3.4625   -4.5013   -5.8432 N   0  0
    1.5110   -2.3844   -5.6043 N   0  0
    0.5466   -1.4327   -5.8789 N   0  0
    4.2441   -5.4538   -6.3796 N   0  0
    1.0782   -2.4518   -7.7981 O   0  0
    7.0759   -9.5600  -11.0260 Cl  0  0
    8.0148   -8.4553   -2.9649 Cl  0  0
    2.9560   -7.0415   -4.1182 Cl  0  0
    5.7117   -5.0693   -9.8059 H   0  0
    4.0783   -8.2836   -7.4342 H   0  0
    6.8631   -5.5235   -6.6512 H   0  0
    6.9455   -6.6993  -11.1645 H   0  0
    5.3133   -9.9125   -8.7937 H   0  0
    8.4411   -6.7656   -5.2401 H   0  0
    5.1743   -8.2400   -2.8536 H   0  0
    3.1844   -3.6803   -9.9787 H   0  0
    2.5942   -5.3582  -10.0657 H   0  0
    1.5452   -4.0969   -9.4207 H   0  0
   -5.0690   -3.3012   -7.2199 H   0  0
   -5.2117   -4.5419   -8.4769 H   0  0
   -3.9692   -4.6938   -7.2229 H   0  0
   -1.1607    0.0106   -7.4095 H   0  0
   -0.0172   -0.1251   -8.7322 H   0  0
   -2.9790   -3.9216   -9.3751 H   0  0
   -4.0989   -2.5579   -9.4167 H   0  0
   -1.0629   -2.2664   -9.4789 H   0  0
   -2.1987   -0.9220   -9.4539 H   0  0
   -1.9775   -3.0539   -7.2642 H   0  0
   -3.1100   -1.6993   -7.2655 H   0  0
  1  4  1  0
  1  8  2  0
  2  5  2  0
  2  8  1  0
  3  6  1  0
  3 10  2  0
  4 11  2  0
  5 11  1  0
  6 12  2  0
  7 12  1  0
  7 13  2  0
  8 15  1  0
  9 14  1  0
  9 15  2  0
  9 18  1  0
 10 13  1  0
 10 27  1  0
 11 29  1  0
 12 30  1  0
 13 31  1  0
 14 16  1  0
 14 24  2  0
 15 27  1  0
 16 25  2  0
 16 28  1  0
 17 20  1  0
 17 26  2  0
 17 28  1  0
 19 21  1  0
 20 22  1  0
 21 23  1  0
 22 23  1  0
 24 27  1  0
 25 26  1  0
  1 32  1  0
  2 33  1  0
  3 34  1  0
  4 35  1  0
  5 36  1  0
  6 37  1  0
  7 38  1  0
 18 39  1  0
 18 40  1  0
 18 41  1  0
 19 42  1  0
 19 43  1  0
 19 44  1  0
 20 45  1  0
 20 46  1  0
 21 47  1  0
 21 48  1  0
 22 49  1  0
 22 50  1  0
 23 51  1  0
 23 52  1  0
M  END
> <Name>
62

> <Experimental_pIC50>
7.14

> <original_article_set>
test

$$$$
63
  SciTegic08162114073D

 53 57  0  0  0  0            999 V2000
    9.3300    1.6705   -7.5817 C   0  0
   10.5937   -0.3545   -7.2079 C   0  0
   10.3796    0.9354   -3.9487 C   0  0
   10.3429    2.1492   -8.4127 C   0  0
   11.6065    0.1242   -8.0389 C   0  0
   11.5667    1.0617   -3.2273 C   0  0
   11.5340   -1.3081   -2.7582 C   0  0
    9.4555    0.4187   -6.9792 C   0  0
    7.0830   -0.3277   -6.3906 C   0  0
    9.7696   -0.3127   -4.0747 C   0  0
   11.4811    1.3760   -8.6414 C   0  0
   12.1439   -0.0600   -2.6321 C   0  0
   10.3468   -1.4344   -3.4796 C   0  0
    6.5543   -0.7965   -5.1730 C   0  0
    8.4057   -0.0786   -6.1173 C   0  0
    5.1555   -1.2050   -4.9354 C   0  0
    3.1155   -1.6304   -5.2060 C   0  0
    0.0661   -1.4973   -8.3488 C   0  0
    0.5568   -2.8582   -7.8643 C   0  0
   -0.0183   -0.4900   -7.2060 C   0  0
    1.8889   -2.7469   -7.1247 C   0  0
    1.3109   -0.3670   -6.4632 C   0  0
    1.8107   -1.7359   -5.9660 C   0  0
    6.3785   -0.1428   -7.6736 C   0  0
    7.4667   -0.8436   -4.1987 N   0  0
    4.7209   -1.6351   -3.7740 N   0  0
    3.3789   -1.9151   -3.9521 N   0  0
    8.5821   -0.4012   -4.8039 N   0  0
    4.1942   -1.1728   -5.8985 O   0  0
   12.7300    1.9652   -9.6684 Cl  0  0
   13.6088    0.0968   -1.7426 Cl  0  0
    9.6289   -3.0023   -3.6070 Cl  0  0
    8.4489    2.2848   -7.4132 H   0  0
   10.7058   -1.3325   -6.7455 H   0  0
    9.9421    1.8193   -4.4069 H   0  0
   10.2318    3.1268   -8.8752 H   0  0
   12.4882   -0.4888   -8.2077 H   0  0
   12.0310    2.0406   -3.1374 H   0  0
   11.9860   -2.1815   -2.2930 H   0  0
    0.7470   -1.1174   -9.1205 H   0  0
   -0.9185   -1.6063   -8.8172 H   0  0
   -0.1937   -3.3014   -7.1983 H   0  0
    0.6658   -3.5359   -8.7185 H   0  0
   -0.3120    0.4897   -7.5993 H   0  0
   -0.8011   -0.8000   -6.5029 H   0  0
    2.1771   -3.7347   -6.7439 H   0  0
    2.6716   -2.4464   -7.8343 H   0  0
    2.0564    0.0863   -7.1303 H   0  0
    1.1922    0.3207   -5.6165 H   0  0
    1.0544   -2.1231   -5.2340 H   0  0
    5.9522    0.8711   -7.7511 H   0  0
    7.0472   -0.2916   -8.5389 H   0  0
    5.5523   -0.8637   -7.8004 H   0  0
  1  4  1  0
  1  8  2  0
  2  5  2  0
  2  8  1  0
  3  6  1  0
  3 10  2  0
  4 11  2  0
  5 11  1  0
  6 12  2  0
  7 12  1  0
  7 13  2  0
  8 15  1  0
  9 14  1  0
  9 15  2  0
  9 24  1  0
 10 13  1  0
 10 28  1  0
 11 30  1  0
 12 31  1  0
 13 32  1  0
 14 16  1  0
 14 25  2  0
 15 28  1  0
 16 26  2  0
 16 29  1  0
 17 23  1  0
 17 27  2  0
 17 29  1  0
 18 19  1  0
 18 20  1  0
 19 21  1  0
 20 22  1  0
 21 23  1  0
 22 23  1  0
 25 28  1  0
 26 27  1  0
  1 33  1  0
  2 34  1  0
  3 35  1  0
  4 36  1  0
  5 37  1  0
  6 38  1  0
  7 39  1  0
 18 40  1  0
 18 41  1  0
 19 42  1  0
 19 43  1  0
 20 44  1  0
 20 45  1  0
 21 46  1  0
 21 47  1  0
 22 48  1  0
 22 49  1  0
 23 50  1  0
 24 51  1  0
 24 52  1  0
 24 53  1  0
M  END
> <Name>
63

> <Experimental_pIC50>
7.92

> <original_article_set>
test

$$$$
60
  SciTegic08162114073D

 60 66  0  0  0  0            999 V2000
    1.8773   -1.0506   -0.1128 C   0  0
    2.8861   -1.6377    2.0025 C   0  0
    7.7656    0.0387   -6.2771 C   0  0
    9.2089   -1.8112   -6.8532 C   0  0
    2.4349   -4.8024    0.5508 C   0  0
    7.3128    0.0959   -7.5952 C   0  0
    8.7561   -1.7540   -8.1713 C   0  0
    1.7797   -5.7720    1.3097 C   0  0
    0.7988   -0.4773    0.5606 C   0  0
    1.8075   -1.0644    2.6760 C   0  0
    3.8063   -6.1567    2.5676 C   0  0
    7.2258    1.3559    0.7103 C   0  0
    7.0687    1.2028   -1.3655 C   0  0
    2.9210   -1.6309    0.6081 C   0  0
    8.7138   -0.9148   -5.9061 C   0  0
    4.9347   -1.6568   -0.9599 C   0  0
    3.7758   -4.5099    0.8001 C   0  0
    7.8080   -0.8005   -8.5423 C   0  0
    2.4654   -6.4492    2.3182 C   0  0
    4.4614   -5.1870    1.8085 C   0  0
    0.7638   -0.4841    1.9550 C   0  0
    5.7939   -2.7135   -1.3162 C   0  0
    4.0369   -2.2232   -0.0884 C   0  0
    6.9400   -2.6239   -2.2413 C   0  0
    8.3802   -1.8971   -3.5880 C   0  0
   10.7003   -0.8600   -4.2378 C   0  0
    9.8105    0.2838   -3.8836 C   0  0
    9.1954   -0.9757   -4.5034 C   0  0
    4.9832   -0.2551   -1.4178 C   0  0
    7.8299    1.7528   -0.4482 N   0  0
    6.1387    0.5949    0.5675 N   0  0
    5.4710   -3.8641   -0.7196 N   0  0
    7.7068   -3.6479   -2.5350 N   0  0
    8.6543   -3.1697   -3.4208 N   0  0
    6.0602    0.5120   -0.7694 N   0  0
    4.3989   -3.5336    0.0204 N   0  0
    7.3034   -1.4733   -2.8712 O   0  0
    7.2494   -0.7296  -10.1684 Cl  0  0
    1.6561   -7.6452    3.2543 Cl  0  0
    6.1236   -4.8605    2.1555 Cl  0  0
   -0.6958    0.2956    2.8680 Br  0  0
    1.8897   -1.0373   -1.2002 H   0  0
    3.6922   -2.0857    2.5787 H   0  0
    7.3745    0.7422   -5.5468 H   0  0
    9.9470   -2.5586   -6.5737 H   0  0
    1.8865   -4.2831   -0.2318 H   0  0
    6.5749    0.8452   -7.8703 H   0  0
    9.1499   -2.4596   -8.8984 H   0  0
    0.7346   -5.9895    1.1043 H   0  0
   -0.0065   -0.0289   -0.0159 H   0  0
    1.7962   -1.0771    3.7629 H   0  0
    4.3389   -6.6863    3.3546 H   0  0
    7.5880    1.6312    1.6895 H   0  0
    7.1959    1.2723   -2.4366 H   0  0
   11.3712   -0.7328   -5.0797 H   0  0
   11.1233   -1.4384   -3.4245 H   0  0
    9.6324    0.4767   -2.8316 H   0  0
    9.8821    1.1824   -4.4861 H   0  0
    5.1412   -0.1698   -2.5110 H   0  0
    4.0386    0.2895   -1.2221 H   0  0
  1  9  1  0
  1 14  2  0
  2 10  2  0
  2 14  1  0
  3  6  1  0
  3 15  2  0
  4  7  2  0
  4 15  1  0
  5  8  1  0
  5 17  2  0
  6 18  2  0
  7 18  1  0
  8 19  2  0
  9 21  2  0
 10 21  1  0
 11 19  1  0
 11 20  2  0
 12 30  1  0
 12 31  2  0
 13 30  2  0
 13 35  1  0
 14 23  1  0
 15 28  1  0
 16 22  1  0
 16 23  2  0
 16 29  1  0
 17 20  1  0
 17 36  1  0
 18 38  1  0
 19 39  1  0
 20 40  1  0
 21 41  1  0
 22 24  1  0
 22 32  2  0
 23 36  1  0
 24 33  2  0
 24 37  1  0
 25 28  1  0
 25 34  2  0
 25 37  1  0
 26 27  1  0
 26 28  1  0
 27 28  1  0
 29 35  1  0
 31 35  1  0
 32 36  1  0
 33 34  1  0
  1 42  1  0
  2 43  1  0
  3 44  1  0
  4 45  1  0
  5 46  1  0
  6 47  1  0
  7 48  1  0
  8 49  1  0
  9 50  1  0
 10 51  1  0
 11 52  1  0
 12 53  1  0
 13 54  1  0
 26 55  1  0
 26 56  1  0
 27 57  1  0
 27 58  1  0
 29 59  1  0
 29 60  1  0
M  END
> <Name>
60

> <Experimental_pIC50>
9.24

> <original_article_set>
test

$$$$
64
  SciTegic08162114073D

 47 51  0  0  0  0            999 V2000
   10.3046    1.0216   -5.9496 C   0  0
   10.7832   -0.2885   -5.9351 C   0  0
    9.1922    1.3663   -5.1818 C   0  0
   10.1495   -1.2539   -5.1529 C   0  0
    8.5585    0.4008   -4.3995 C   0  0
    1.8786   -1.0483   -0.1128 C   0  0
    2.8849   -1.6400    2.0025 C   0  0
    2.4305   -4.8016    0.5476 C   0  0
    0.8000   -0.4750    0.5607 C   0  0
    1.8063   -1.0666    2.6760 C   0  0
    1.7730   -5.7710    1.3049 C   0  0
    3.7973   -6.1594    2.5652 C   0  0
    2.9210   -1.6309    0.6081 C   0  0
    9.0371   -0.9093   -4.3851 C   0  0
    4.9367   -1.6582   -0.9572 C   0  0
    3.7715   -4.5112    0.7990 C   0  0
    0.7638   -0.4841    1.9551 C   0  0
    2.4564   -6.4499    2.3137 C   0  0
    4.4549   -5.1901    1.8078 C   0  0
    5.7949   -2.7158   -1.3131 C   0  0
    4.0369   -2.2241   -0.0873 C   0  0
    8.3862   -1.9018   -3.5802 C   0  0
    6.9424   -2.6270   -2.2366 C   0  0
    4.9877   -0.2562   -1.4139 C   0  0
    5.4696   -3.8664   -0.7179 N   0  0
    8.6578   -3.1751   -3.4135 N   0  0
    7.7078   -3.6522   -2.5297 N   0  0
    4.3970   -3.5351    0.0209 N   0  0
    7.3089   -1.4767   -2.8652 O   0  0
   -0.5656    0.2251    2.7864 Cl  0  0
    1.6442   -7.6456    3.2478 Cl  0  0
    6.1170   -4.8661    2.1572 Cl  0  0
   10.7984    1.7734   -6.5582 H   0  0
   11.6493   -0.5566   -6.5333 H   0  0
    8.8202    2.3866   -5.1922 H   0  0
   10.5363   -2.2702   -5.1503 H   0  0
    7.6919    0.6851   -3.8074 H   0  0
    1.8924   -1.0334   -1.1999 H   0  0
    3.6902   -2.0901    2.5785 H   0  0
    1.8839   -4.2809   -0.2353 H   0  0
   -0.0056   -0.0249   -0.0142 H   0  0
    1.7910   -1.0815    3.7627 H   0  0
    0.7279   -5.9869    1.0979 H   0  0
    4.3282   -6.6904    3.3525 H   0  0
    4.3852   -0.1126   -2.3260 H   0  0
    4.6084    0.4430   -0.6488 H   0  0
    6.0182    0.0691   -1.6389 H   0  0
  1  2  2  0
  1  3  1  0
  2  4  1  0
  3  5  2  0
  4 14  2  0
  5 14  1  0
  6  9  1  0
  6 13  2  0
  7 10  2  0
  7 13  1  0
  8 11  1  0
  8 16  2  0
  9 17  2  0
 10 17  1  0
 11 18  2  0
 12 18  1  0
 12 19  2  0
 13 21  1  0
 14 22  1  0
 15 20  1  0
 15 21  2  0
 15 24  1  0
 16 19  1  0
 16 28  1  0
 17 30  1  0
 18 31  1  0
 19 32  1  0
 20 23  1  0
 20 25  2  0
 21 28  1  0
 22 26  2  0
 22 29  1  0
 23 27  2  0
 23 29  1  0
 25 28  1  0
 26 27  1  0
  1 33  1  0
  2 34  1  0
  3 35  1  0
  4 36  1  0
  5 37  1  0
  6 38  1  0
  7 39  1  0
  8 40  1  0
  9 41  1  0
 10 42  1  0
 11 43  1  0
 12 44  1  0
 24 45  1  0
 24 46  1  0
 24 47  1  0
M  END
> <Name>
64

> <Experimental_pIC50>
6.55

> <original_article_set>
test

$$$$
66
  SciTegic08162114073D

 55 58  0  0  0  0            999 V2000
   -0.4029   -4.9436    8.0565 C   0  0
    1.5407   -3.5157    8.1999 C   0  0
   -1.0085   -1.3177    9.2030 C   0  0
    0.1490   -5.7914    9.0169 C   0  0
    2.0926   -4.3634    9.1604 C   0  0
   -0.8274   -0.6260   10.4006 C   0  0
    0.6593    0.9172    9.2846 C   0  0
    0.2930   -3.8058    7.6480 C   0  0
   -0.6469   -3.1833    5.3542 C   0  0
   -0.3557   -0.8920    8.0461 C   0  0
    1.3967   -5.5013    9.5689 C   0  0
    0.0065    0.4914   10.4414 C   0  0
    0.4782    0.2254    8.0869 C   0  0
   -1.1380   -1.9531    4.8774 C   0  0
   -0.2784   -2.9261    6.6521 C   0  0
   -1.6626   -1.6961    3.5216 C   0  0
   -2.2693   -1.9410    1.5246 C   0  0
   -1.8087   -6.4809    3.7169 C   0  0
   -3.1127   -1.7424   -0.8408 C   0  0
   -3.4814   -3.8711    0.4511 C   0  0
   -1.2206   -3.2965   -0.4089 C   0  0
   -0.5474   -4.4630    4.6268 C   0  0
   -1.9065   -5.1811    4.4997 C   0  0
   -2.5057   -2.6993    0.2080 C   0  0
   -1.0877   -0.9863    5.7977 N   0  0
   -2.1080   -0.5236    3.1348 N   0  0
   -2.5073   -0.6848    1.8211 N   0  0
   -0.5606   -1.6089    6.8657 N   0  0
   -1.7319   -2.6510    2.5541 O   0  0
    2.0770   -6.5456   10.7555 Cl  0  0
    0.2291    1.3444   11.9195 Cl  0  0
    1.3093    0.7917    6.6804 Cl  0  0
   -1.3764   -5.1832    7.6356 H   0  0
    2.0952   -2.6323    7.8918 H   0  0
   -1.6619   -2.1869    9.1874 H   0  0
   -0.4045   -6.6748    9.3254 H   0  0
    3.0660   -4.1254    9.5814 H   0  0
   -1.3426   -0.9691   11.2943 H   0  0
    1.3093    1.7889    9.3190 H   0  0
   -1.4139   -6.3043    2.7113 H   0  0
   -1.1528   -7.1957    4.2239 H   0  0
   -2.7979   -6.9388    3.6175 H   0  0
   -3.2914   -2.2592   -1.7909 H   0  0
   -4.0734   -1.3275   -0.5167 H   0  0
   -2.4410   -0.8992   -1.0408 H   0  0
   -3.6799   -4.4417   -0.4627 H   0  0
   -3.0772   -4.5759    1.1872 H   0  0
   -4.4451   -3.5099    0.8293 H   0  0
   -1.4403   -3.8260   -1.3439 H   0  0
   -0.4866   -2.5173   -0.6455 H   0  0
   -0.7467   -4.0187    0.2661 H   0  0
   -0.1338   -4.3166    3.6081 H   0  0
    0.1666   -5.1533    5.1208 H   0  0
   -2.3044   -5.3934    5.4995 H   0  0
   -2.6274   -4.5182    4.0061 H   0  0
  1  4  1  0
  1  8  2  0
  2  5  2  0
  2  8  1  0
  3  6  1  0
  3 10  2  0
  4 11  2  0
  5 11  1  0
  6 12  2  0
  7 12  1  0
  7 13  2  0
  8 15  1  0
  9 14  1  0
  9 15  2  0
  9 22  1  0
 10 13  1  0
 10 28  1  0
 11 30  1  0
 12 31  1  0
 13 32  1  0
 14 16  1  0
 14 25  2  0
 15 28  1  0
 16 26  2  0
 16 29  1  0
 17 24  1  0
 17 27  2  0
 17 29  1  0
 18 23  1  0
 19 24  1  0
 20 24  1  0
 21 24  1  0
 22 23  1  0
 25 28  1  0
 26 27  1  0
  1 33  1  0
  2 34  1  0
  3 35  1  0
  4 36  1  0
  5 37  1  0
  6 38  1  0
  7 39  1  0
 18 40  1  0
 18 41  1  0
 18 42  1  0
 19 43  1  0
 19 44  1  0
 19 45  1  0
 20 46  1  0
 20 47  1  0
 20 48  1  0
 21 49  1  0
 21 50  1  0
 21 51  1  0
 22 52  1  0
 22 53  1  0
 23 54  1  0
 23 55  1  0
M  END
> <Name>
66

> <Experimental_pIC50>
7.47

> <original_article_set>
test

$$$$
67
  SciTegic08162114073D

 49 52  0  0  0  0            999 V2000
    1.5180   -4.4288    7.4092 C   0  0
   -0.3819   -4.0312    8.8477 C   0  0
    0.9430   -0.7930    8.5456 C   0  0
    2.0682   -5.2769    8.3702 C   0  0
    0.1683   -4.8794    9.8087 C   0  0
    1.1855   -0.0846    9.7224 C   0  0
   -1.1693    0.4258    9.9004 C   0  0
    0.2930   -3.8058    7.6480 C   0  0
   -0.6469   -3.1833    5.3542 C   0  0
   -0.3557   -0.8920    8.0461 C   0  0
    1.3933   -5.5023    9.5699 C   0  0
    0.1293    0.5248   10.3998 C   0  0
   -1.4118   -0.2826    8.7235 C   0  0
   -1.1380   -1.9531    4.8774 C   0  0
   -0.2784   -2.9261    6.6521 C   0  0
   -1.6626   -1.6961    3.5216 C   0  0
   -2.2693   -1.9410    1.5246 C   0  0
   -2.3738   -1.7257   -0.9831 C   0  0
   -3.9230   -3.3120    0.2084 C   0  0
   -1.5091   -3.8554   -0.0352 C   0  0
   -0.5474   -4.4630    4.6268 C   0  0
   -2.5057   -2.6993    0.2080 C   0  0
   -1.0877   -0.9863    5.7977 N   0  0
   -2.1080   -0.5236    3.1348 N   0  0
   -2.5073   -0.6848    1.8211 N   0  0
   -0.5606   -1.6089    6.8657 N   0  0
   -1.7319   -2.6510    2.5541 O   0  0
    0.4862   -4.4415    3.7299 F   0  0
    2.0706   -6.5504   10.7549 Cl  0  0
    0.4294    1.3985   11.8519 Cl  0  0
   -3.0383   -0.3765    8.1446 Cl  0  0
    2.0560   -4.2631    6.4789 H   0  0
   -1.3379   -3.5529    9.0483 H   0  0
    1.7769   -1.2626    8.0292 H   0  0
    3.0239   -5.7553    8.1706 H   0  0
   -0.3683   -5.0453   10.7393 H   0  0
    2.2026   -0.0158   10.1000 H   0  0
   -1.9914    0.9021   10.4305 H   0  0
   -2.5381   -2.2422   -1.9360 H   0  0
   -3.1012   -0.9080   -0.9328 H   0  0
   -1.3746   -1.2754   -1.0156 H   0  0
   -4.1364   -3.8637   -0.7136 H   0  0
   -4.0491   -4.0161    1.0393 H   0  0
   -4.6889   -2.5342    0.3111 H   0  0
   -1.7181   -4.3641   -0.9841 H   0  0
   -0.4755   -3.4936   -0.0852 H   0  0
   -1.5683   -4.6123    0.7556 H   0  0
   -1.4604   -4.6971    4.0551 H   0  0
   -0.3687   -5.3193    5.2978 H   0  0
  1  4  1  0
  1  8  2  0
  2  5  2  0
  2  8  1  0
  3  6  1  0
  3 10  2  0
  4 11  2  0
  5 11  1  0
  6 12  2  0
  7 12  1  0
  7 13  2  0
  8 15  1  0
  9 14  1  0
  9 15  2  0
  9 21  1  0
 10 13  1  0
 10 26  1  0
 11 29  1  0
 12 30  1  0
 13 31  1  0
 14 16  1  0
 14 23  2  0
 15 26  1  0
 16 24  2  0
 16 27  1  0
 17 22  1  0
 17 25  2  0
 17 27  1  0
 18 22  1  0
 19 22  1  0
 20 22  1  0
 21 28  1  0
 23 26  1  0
 24 25  1  0
  1 32  1  0
  2 33  1  0
  3 34  1  0
  4 35  1  0
  5 36  1  0
  6 37  1  0
  7 38  1  0
 18 39  1  0
 18 40  1  0
 18 41  1  0
 19 42  1  0
 19 43  1  0
 19 44  1  0
 20 45  1  0
 20 46  1  0
 20 47  1  0
 21 48  1  0
 21 49  1  0
M  END
> <Name>
67

> <Experimental_pIC50>
7.83

> <original_article_set>
test

$$$$
65
  SciTegic08162114073D

 56 60  0  0  0  0            999 V2000
    1.8786   -1.0483   -0.1128 C   0  0
    2.8849   -1.6400    2.0025 C   0  0
    7.5239   -1.0586   -6.4806 C   0  0
    7.8910    1.1241   -5.5121 C   0  0
    2.4305   -4.8016    0.5476 C   0  0
    0.8000   -0.4750    0.5607 C   0  0
    1.8063   -1.0666    2.6760 C   0  0
    6.6961   -0.4899   -7.4486 C   0  0
    7.0633    1.6928   -6.4800 C   0  0
    1.7730   -5.7710    1.3049 C   0  0
    3.7973   -6.1594    2.5652 C   0  0
    2.9210   -1.6309    0.6081 C   0  0
    8.1213   -0.2517   -5.5123 C   0  0
    4.9367   -1.6582   -0.9572 C   0  0
    3.7715   -4.5112    0.7990 C   0  0
    0.7638   -0.4841    1.9551 C   0  0
    6.4658    0.8858   -7.4483 C   0  0
    2.4564   -6.4499    2.3137 C   0  0
    4.4549   -5.1901    1.8078 C   0  0
    5.7949   -2.7158   -1.3131 C   0  0
    4.0369   -2.2241   -0.0873 C   0  0
    6.9424   -2.6270   -2.2366 C   0  0
    8.3863   -1.9004   -3.5794 C   0  0
    4.9877   -0.2562   -1.4139 C   0  0
    9.6901    0.2332   -3.5008 C   0  0
   10.3217   -1.4103   -5.2396 C   0  0
    9.0655   -0.8987   -4.4108 C   0  0
    5.4696   -3.8664   -0.7179 N   0  0
    7.7083   -3.6517   -2.5302 N   0  0
    8.6582   -3.1736   -3.4135 N   0  0
    4.3970   -3.5351    0.0209 N   0  0
    7.3087   -1.4761   -2.8642 O   0  0
   -0.5656    0.2251    2.7864 Cl  0  0
    5.4448    1.5872   -8.6426 Cl  0  0
    1.6442   -7.6456    3.2478 Cl  0  0
    6.1170   -4.8661    2.1572 Cl  0  0
    1.8924   -1.0334   -1.1999 H   0  0
    3.6902   -2.0901    2.5785 H   0  0
    7.6983   -2.1314   -6.4874 H   0  0
    8.3529    1.7598   -4.7612 H   0  0
    1.8839   -4.2809   -0.2353 H   0  0
   -0.0056   -0.0249   -0.0142 H   0  0
    1.7910   -1.0815    3.7627 H   0  0
    6.2378   -1.1312   -8.1970 H   0  0
    6.8929    2.7663   -6.4674 H   0  0
    0.7279   -5.9869    1.0979 H   0  0
    4.3282   -6.6904    3.3525 H   0  0
    4.3852   -0.1126   -2.3260 H   0  0
    4.6084    0.4430   -0.6488 H   0  0
    6.0182    0.0691   -1.6389 H   0  0
   10.3580   -0.1303   -2.7106 H   0  0
   10.2521    0.9557   -4.1043 H   0  0
    8.8812    0.7885   -3.0092 H   0  0
   11.0909   -1.8944   -4.6249 H   0  0
   10.0077   -2.1392   -5.9962 H   0  0
   10.8081   -0.5782   -5.7619 H   0  0
  1  6  1  0
  1 12  2  0
  2  7  2  0
  2 12  1  0
  3  8  1  0
  3 13  2  0
  4  9  2  0
  4 13  1  0
  5 10  1  0
  5 15  2  0
  6 16  2  0
  7 16  1  0
  8 17  2  0
  9 17  1  0
 10 18  2  0
 11 18  1  0
 11 19  2  0
 12 21  1  0
 13 27  1  0
 14 20  1  0
 14 21  2  0
 14 24  1  0
 15 19  1  0
 15 31  1  0
 16 33  1  0
 17 34  1  0
 18 35  1  0
 19 36  1  0
 20 22  1  0
 20 28  2  0
 21 31  1  0
 22 29  2  0
 22 32  1  0
 23 27  1  0
 23 30  2  0
 23 32  1  0
 25 27  1  0
 26 27  1  0
 28 31  1  0
 29 30  1  0
  1 37  1  0
  2 38  1  0
  3 39  1  0
  4 40  1  0
  5 41  1  0
  6 42  1  0
  7 43  1  0
  8 44  1  0
  9 45  1  0
 10 46  1  0
 11 47  1  0
 24 48  1  0
 24 49  1  0
 24 50  1  0
 25 51  1  0
 25 52  1  0
 25 53  1  0
 26 54  1  0
 26 55  1  0
 26 56  1  0
M  END
> <Name>
65

> <Experimental_pIC50>
8.32

> <original_article_set>
test

$$$$
68
  SciTegic08162114073D

 53 56  0  0  1  0            999 V2000
    1.6779   -3.9334    7.7551 C   0  0
   -0.5419   -4.5270    8.5015 C   0  0
    0.9430   -0.7930    8.5456 C   0  0
    2.2279   -4.7820    8.7157 C   0  0
    0.0081   -5.3757    9.4622 C   0  0
    1.1855   -0.0846    9.7224 C   0  0
   -1.1693    0.4258    9.9004 C   0  0
    0.2930   -3.8058    7.6480 C   0  0
   -0.6469   -3.1833    5.3542 C   0  0
   -0.3557   -0.8920    8.0461 C   0  0
    1.3931   -5.5032    9.5693 C   0  0
    0.1293    0.5248   10.3998 C   0  0
   -1.4118   -0.2826    8.7235 C   0  0
   -1.1380   -1.9531    4.8774 C   0  0
   -0.2784   -2.9261    6.6521 C   0  0
   -1.6626   -1.6961    3.5216 C   0  0
   -2.2693   -1.9410    1.5246 C   0  0
    0.8074   -4.6770    3.9356 C   0  0
   -2.3738   -1.7257   -0.9831 C   0  0
   -3.9230   -3.3120    0.2084 C   0  0
   -1.5091   -3.8554   -0.0352 C   0  0
   -0.5474   -4.4630    4.6268 C   0  0  1  0  0  0
   -2.5057   -2.6993    0.2080 C   0  0
   -1.0877   -0.9863    5.7977 N   0  0
   -2.1080   -0.5236    3.1348 N   0  0
   -2.5073   -0.6848    1.8211 N   0  0
   -0.5606   -1.6089    6.8657 N   0  0
   -1.7319   -2.6510    2.5541 O   0  0
   -0.7345   -5.5567    5.5408 O   0  0
    2.0711   -6.5520   10.7532 Cl  0  0
    0.4294    1.3985   11.8519 Cl  0  0
   -3.0383   -0.3765    8.1446 Cl  0  0
    2.3417   -3.3779    7.0970 H   0  0
   -1.6235   -4.4384    8.4300 H   0  0
    1.7769   -1.2626    8.0292 H   0  0
    3.3091   -4.8711    8.7881 H   0  0
   -0.6544   -5.9311   10.1210 H   0  0
    2.2026   -0.0158   10.1000 H   0  0
   -1.9914    0.9021   10.4305 H   0  0
    1.6297   -4.5757    4.6510 H   0  0
    0.9582   -3.9496    3.1301 H   0  0
    0.8679   -5.6681    3.4726 H   0  0
   -2.5381   -2.2422   -1.9360 H   0  0
   -3.1012   -0.9080   -0.9328 H   0  0
   -1.3746   -1.2754   -1.0156 H   0  0
   -4.1364   -3.8637   -0.7136 H   0  0
   -4.0491   -4.0161    1.0393 H   0  0
   -4.6889   -2.5342    0.3111 H   0  0
   -1.7181   -4.3641   -0.9841 H   0  0
   -0.4755   -3.4936   -0.0852 H   0  0
   -1.5683   -4.6123    0.7556 H   0  0
   -1.3338   -4.5782    3.8528 H   0  0
   -0.6588   -6.3604    5.0096 H   0  0
  1  4  1  0
  1  8  2  0
  2  5  2  0
  2  8  1  0
  3  6  1  0
  3 10  2  0
  4 11  2  0
  5 11  1  0
  6 12  2  0
  7 12  1  0
  7 13  2  0
  8 15  1  0
  9 14  1  0
  9 15  2  0
  9 22  1  0
 10 13  1  0
 10 27  1  0
 11 30  1  0
 12 31  1  0
 13 32  1  0
 14 16  1  0
 14 24  2  0
 15 27  1  0
 16 25  2  0
 16 28  1  0
 17 23  1  0
 17 26  2  0
 17 28  1  0
 18 22  1  0
 19 23  1  0
 20 23  1  0
 21 23  1  0
 22 29  1  0
 24 27  1  0
 25 26  1  0
  1 33  1  0
  2 34  1  0
  3 35  1  0
  4 36  1  0
  5 37  1  0
  6 38  1  0
  7 39  1  0
 18 40  1  0
 18 41  1  0
 18 42  1  0
 19 43  1  0
 19 44  1  0
 19 45  1  0
 20 46  1  0
 20 47  1  0
 20 48  1  0
 21 49  1  0
 21 50  1  0
 21 51  1  0
 22 52  1  0
 29 53  1  0
M  END
> <Name>
68

> <Experimental_pIC50>
8

> <original_article_set>
test

$$$$
69
  SciTegic08162114073D

 50 53  0  0  0  0            999 V2000
   -0.3995   -4.9214    8.0831 C   0  0
    1.5367   -3.4828    8.2197 C   0  0
   -1.0203   -1.2960    9.2000 C   0  0
    0.1528   -5.7570    9.0538 C   0  0
    2.0890   -4.3184    9.1904 C   0  0
   -0.8440   -0.5972   10.3943 C   0  0
    0.6409    0.9440    9.2732 C   0  0
    0.2924   -3.7843    7.6660 C   0  0
   -0.6449   -3.1799    5.3608 C   0  0
   -0.3660   -0.8748    8.0424 C   0  0
    1.3971   -5.4555    9.6075 C   0  0
   -0.0134    0.5228   10.4309 C   0  0
    0.4646    0.2452    8.0790 C   0  0
   -1.1380   -1.9531    4.8774 C   0  0
   -0.2801   -2.9161    6.6584 C   0  0
   -1.6626   -1.6961    3.5216 C   0  0
   -2.2690   -1.9410    1.5245 C   0  0
    0.6117   -5.1086    4.5143 C   0  0
   -0.5353   -4.4193    4.6934 C   0  0
   -2.3734   -1.7252   -0.9831 C   0  0
   -3.9220   -3.3125    0.2079 C   0  0
   -1.5078   -3.8547   -0.0356 C   0  0
   -2.5049   -2.6991    0.2078 C   0  0
   -1.0922   -0.9821    5.7935 N   0  0
   -2.1086   -0.5237    3.1349 N   0  0
   -2.5076   -0.6849    1.8212 N   0  0
   -0.5661   -1.5987    6.8655 N   0  0
   -1.7313   -2.6509    2.5539 O   0  0
    2.0780   -6.4849   10.8067 Cl  0  0
    0.2033    1.3844   11.9048 Cl  0  0
    1.2974    0.8062    6.6714 Cl  0  0
   -1.3703   -5.1697    7.6610 H   0  0
    2.0881   -2.5997    7.9050 H   0  0
   -1.6713   -2.1671    9.1877 H   0  0
   -0.3976   -6.6400    9.3689 H   0  0
    3.0597   -4.0715    9.6127 H   0  0
   -1.3603   -0.9369   11.2886 H   0  0
    1.2883    1.8178    9.3044 H   0  0
    0.6015   -6.0636    3.9977 H   0  0
    1.5720   -4.7625    4.8776 H   0  0
   -1.4440   -4.8950    4.3024 H   0  0
   -2.5374   -2.2416   -1.9361 H   0  0
   -3.1012   -0.9079   -0.9328 H   0  0
   -1.3743   -1.2744   -1.0155 H   0  0
   -4.1350   -3.8641   -0.7142 H   0  0
   -4.0478   -4.0167    1.0386 H   0  0
   -4.6882   -2.5350    0.3107 H   0  0
   -1.7165   -4.3633   -0.9845 H   0  0
   -0.4743   -3.4924   -0.0855 H   0  0
   -1.5667   -4.6118    0.7550 H   0  0
  1  4  1  0
  1  8  2  0
  2  5  2  0
  2  8  1  0
  3  6  1  0
  3 10  2  0
  4 11  2  0
  5 11  1  0
  6 12  2  0
  7 12  1  0
  7 13  2  0
  8 15  1  0
  9 14  1  0
  9 15  2  0
  9 19  1  0
 10 13  1  0
 10 27  1  0
 11 29  1  0
 12 30  1  0
 13 31  1  0
 14 16  1  0
 14 24  2  0
 15 27  1  0
 16 25  2  0
 16 28  1  0
 17 23  1  0
 17 26  2  0
 17 28  1  0
 18 19  2  0
 20 23  1  0
 21 23  1  0
 22 23  1  0
 24 27  1  0
 25 26  1  0
  1 32  1  0
  2 33  1  0
  3 34  1  0
  4 35  1  0
  5 36  1  0
  6 37  1  0
  7 38  1  0
 18 39  1  0
 18 40  1  0
 19 41  1  0
 20 42  1  0
 20 43  1  0
 20 44  1  0
 21 45  1  0
 21 46  1  0
 21 47  1  0
 22 48  1  0
 22 49  1  0
 22 50  1  0
M  END
> <Name>
69

> <Experimental_pIC50>
7.77

> <original_article_set>
test

$$$$
7
  SciTegic08162114073D

 52 55  0  0  0  0            999 V2000
    1.7334   -8.4021    0.2769 C   0  0
    0.3241   -9.1681    2.0836 C   0  0
    1.6984   -6.2499    3.4719 C   0  0
    2.4757   -9.5803    0.3563 C   0  0
    1.0663  -10.3464    2.1630 C   0  0
    2.2928   -6.3538    4.7294 C   0  0
    0.1090   -6.3381    5.7629 C   0  0
    0.6576   -8.1959    1.1406 C   0  0
   -0.8355   -6.4547    0.0131 C   0  0
    0.3093   -6.1901    3.3598 C   0  0
    2.1421  -10.5525    1.2993 C   0  0
    1.4981   -6.3979    5.8750 C   0  0
   -0.4854   -6.2342    4.5053 C   0  0
   -1.3672   -5.2521    0.5158 C   0  0
   -0.1128   -6.9744    1.0590 C   0  0
   -2.2264   -4.3075   -0.2252 C   0  0
   -3.3679   -3.3927   -1.7339 C   0  0
   -1.0113   -7.0307   -1.3338 C   0  0
   -1.8485   -2.1958   -4.1664 C   0  0
   -4.8403   -1.9575   -3.3031 C   0  0
   -4.9672   -4.4323   -3.3570 C   0  0
   -2.9122   -3.2869   -4.2499 C   0  0
   -3.9982   -3.2447   -3.1308 C   0  0
   -1.0126   -5.0214    1.7827 N   0  0
   -2.6929   -3.1985    0.2995 N   0  0
   -3.4440   -2.5968   -0.6930 N   0  0
   -0.2505   -6.0863    2.0849 N   0  0
   -2.6113   -4.5030   -1.5161 O   0  0
    3.0562  -12.0074    1.3962 Cl  0  0
    2.2324   -6.5262    7.4261 Cl  0  0
   -2.2108   -6.1629    4.4184 Cl  0  0
    2.0056   -7.6537   -0.4634 H   0  0
   -0.5121   -9.0219    2.7636 H   0  0
    2.3316   -6.2168    2.5883 H   0  0
    3.3118   -9.7272   -0.3229 H   0  0
    0.7955  -11.0950    2.9030 H   0  0
    3.3765   -6.3995    4.8017 H   0  0
   -0.5086   -6.3725    6.6579 H   0  0
   -0.2240   -6.6813   -2.0220 H   0  0
   -0.9784   -8.1338   -1.3204 H   0  0
   -1.9861   -6.7610   -1.7759 H   0  0
   -1.3206   -2.2185   -3.2091 H   0  0
   -2.3212   -1.2120   -4.2551 H   0  0
   -1.1137   -2.2826   -4.9718 H   0  0
   -5.2665   -1.8986   -4.3116 H   0  0
   -4.2482   -1.0498   -3.1467 H   0  0
   -5.6794   -1.9304   -2.5976 H   0  0
   -5.4531   -4.3888   -4.3381 H   0  0
   -5.7641   -4.4408   -2.6040 H   0  0
   -4.4397   -5.3917   -3.2943 H   0  0
   -3.4008   -3.2076   -5.2304 H   0  0
   -2.4031   -4.2586   -4.2535 H   0  0
  1  4  1  0
  1  8  2  0
  2  5  2  0
  2  8  1  0
  3  6  1  0
  3 10  2  0
  4 11  2  0
  5 11  1  0
  6 12  2  0
  7 12  1  0
  7 13  2  0
  8 15  1  0
  9 14  1  0
  9 15  2  0
  9 18  1  0
 10 13  1  0
 10 27  1  0
 11 29  1  0
 12 30  1  0
 13 31  1  0
 14 16  1  0
 14 24  2  0
 15 27  1  0
 16 25  2  0
 16 28  1  0
 17 23  1  0
 17 26  2  0
 17 28  1  0
 19 22  1  0
 20 23  1  0
 21 23  1  0
 22 23  1  0
 24 27  1  0
 25 26  1  0
  1 32  1  0
  2 33  1  0
  3 34  1  0
  4 35  1  0
  5 36  1  0
  6 37  1  0
  7 38  1  0
 18 39  1  0
 18 40  1  0
 18 41  1  0
 19 42  1  0
 19 43  1  0
 19 44  1  0
 20 45  1  0
 20 46  1  0
 20 47  1  0
 21 48  1  0
 21 49  1  0
 21 50  1  0
 22 51  1  0
 22 52  1  0
M  END
> <Name>
7

> <Experimental_pIC50>
7.98

> <original_article_set>
training

$$$$
72
  SciTegic08162114073D

 58 62  0  0  0  0            999 V2000
    4.4439    0.1423    0.2771 C   0  0
    5.6556    0.7052   -1.7358 C   0  0
    4.1636    3.7842   -0.9421 C   0  0
    5.6437   -0.1880    0.9070 C   0  0
    6.8555    0.3750   -1.1059 C   0  0
    4.9928    4.9042   -0.8806 C   0  0
    4.9956    5.0346   -3.2931 C   0  0
    4.4498    0.5888   -1.0444 C   0  0
    2.0990    0.1587   -1.9505 C   0  0
    3.7505    3.2894   -2.1791 C   0  0
    6.8495   -0.0715    0.2156 C   0  0
    5.4088    5.5294   -2.0561 C   0  0
    4.1664    3.9146   -3.3546 C   0  0
    1.2069    1.0258   -2.6094 C   0  0
    3.2061    0.9315   -1.6986 C   0  0
   -0.1412    0.6748   -3.0983 C   0  0
   -1.8993   -0.3837   -3.5507 C   0  0
    3.5406   -3.1118   -2.0796 C   0  0
    2.3148   -2.2903   -3.8652 C   0  0
    3.4323   -3.1750   -4.3593 C   0  0
   -3.7377   -1.5169   -4.8475 C   0  0
   -3.7249   -1.6206   -2.3325 C   0  0
   -2.0990   -2.9575   -3.6556 C   0  0
    1.8953   -1.2616   -1.6067 C   0  0
   -2.8374   -1.6011   -3.5960 C   0  0
    1.7043    2.2555   -2.7661 N   0  0
   -0.9289    1.5299   -3.7074 N   0  0
   -2.0856    0.8336   -4.0049 N   0  0
    2.9208    2.1666   -2.2020 N   0  0
    2.6243   -2.1615   -2.4736 N   0  0
    3.9393   -3.3435   -0.9465 O   0  0
   -0.6865   -0.5647   -2.9599 O   0  0
    3.9587   -3.8135   -3.1844 O   0  0
    8.3304   -0.4767    0.9931 Cl  0  0
    6.4316    6.9112   -1.9793 Cl  0  0
    3.6816    3.3390   -4.9113 Cl  0  0
    3.5121    0.0463    0.8292 H   0  0
    5.6764    1.0522   -2.7664 H   0  0
    3.8478    3.3081   -0.0167 H   0  0
    5.6239   -0.5351    1.9372 H   0  0
    7.7875    0.4700   -1.6570 H   0  0
    5.3069    5.2788    0.0904 H   0  0
    5.3214    5.5239   -4.2085 H   0  0
    2.2914   -1.3181   -4.3648 H   0  0
    1.3397   -2.7791   -3.9596 H   0  0
    3.0762   -3.9382   -5.0571 H   0  0
    4.2389   -2.6028   -4.8290 H   0  0
   -4.4177   -2.3749   -4.9039 H   0  0
   -4.3598   -0.6151   -4.8509 H   0  0
   -3.1376   -1.5059   -5.7651 H   0  0
   -4.4118   -2.4739   -2.3215 H   0  0
   -3.1164   -1.6878   -1.4230 H   0  0
   -4.3307   -0.7095   -2.2620 H   0  0
   -2.8089   -3.7929   -3.6863 H   0  0
   -1.4709   -3.0363   -4.5507 H   0  0
   -1.4617   -3.1091   -2.7766 H   0  0
    2.2165   -1.4857   -0.5735 H   0  0
    0.8330   -1.5587   -1.6654 H   0  0
  1  4  1  0
  1  8  2  0
  2  5  2  0
  2  8  1  0
  3  6  1  0
  3 10  2  0
  4 11  2  0
  5 11  1  0
  6 12  2  0
  7 12  1  0
  7 13  2  0
  8 15  1  0
  9 14  1  0
  9 15  2  0
  9 24  1  0
 10 13  1  0
 10 29  1  0
 11 34  1  0
 12 35  1  0
 13 36  1  0
 14 16  1  0
 14 26  2  0
 15 29  1  0
 16 27  2  0
 16 32  1  0
 17 25  1  0
 17 28  2  0
 17 32  1  0
 18 30  1  0
 18 31  2  0
 18 33  1  0
 19 20  1  0
 19 30  1  0
 20 33  1  0
 21 25  1  0
 22 25  1  0
 23 25  1  0
 24 30  1  0
 26 29  1  0
 27 28  1  0
  1 37  1  0
  2 38  1  0
  3 39  1  0
  4 40  1  0
  5 41  1  0
  6 42  1  0
  7 43  1  0
 19 44  1  0
 19 45  1  0
 20 46  1  0
 20 47  1  0
 21 48  1  0
 21 49  1  0
 21 50  1  0
 22 51  1  0
 22 52  1  0
 22 53  1  0
 23 54  1  0
 23 55  1  0
 23 56  1  0
 24 57  1  0
 24 58  1  0
M  END
> <Name>
72

> <Experimental_pIC50>
6.9

> <original_article_set>
test

$$$$
70
  SciTegic08162114073D

 55 58  0  0  0  0            999 V2000
   -0.4029   -4.9436    8.0565 C   0  0
    1.5407   -3.5157    8.1999 C   0  0
   -1.0085   -1.3177    9.2030 C   0  0
    0.1490   -5.7914    9.0169 C   0  0
    2.0926   -4.3634    9.1604 C   0  0
   -0.8274   -0.6260   10.4006 C   0  0
    0.6593    0.9172    9.2846 C   0  0
    0.2930   -3.8058    7.6480 C   0  0
   -0.6469   -3.1833    5.3542 C   0  0
   -0.3557   -0.8920    8.0461 C   0  0
    1.3967   -5.5013    9.5689 C   0  0
    0.0065    0.4914   10.4414 C   0  0
    0.4782    0.2254    8.0869 C   0  0
   -1.1380   -1.9531    4.8774 C   0  0
   -0.2784   -2.9261    6.6521 C   0  0
   -1.6626   -1.6961    3.5216 C   0  0
   -2.2693   -1.9410    1.5246 C   0  0
   -1.6436   -6.7463    3.5713 C   0  0
   -2.7762   -7.6853    3.2670 C   0  0
   -2.3738   -1.7257   -0.9831 C   0  0
   -3.9230   -3.3120    0.2084 C   0  0
   -1.5091   -3.8554   -0.0352 C   0  0
   -0.5474   -4.4630    4.6268 C   0  0
   -2.5057   -2.6993    0.2080 C   0  0
   -1.0877   -0.9863    5.7977 N   0  0
   -2.1080   -0.5236    3.1348 N   0  0
   -2.5073   -0.6848    1.8211 N   0  0
   -0.5606   -1.6089    6.8657 N   0  0
   -0.4870   -6.9620    3.2301 O   0  0
   -1.7319   -2.6510    2.5541 O   0  0
   -2.1526   -5.3152    4.4604 S   0  0
    2.0770   -6.5456   10.7555 Cl  0  0
    0.2291    1.3444   11.9195 Cl  0  0
    1.3093    0.7917    6.6804 Cl  0  0
   -1.3764   -5.1832    7.6356 H   0  0
    2.0952   -2.6323    7.8918 H   0  0
   -1.6619   -2.1869    9.1874 H   0  0
   -0.4045   -6.6748    9.3254 H   0  0
    3.0660   -4.1254    9.5814 H   0  0
   -1.3426   -0.9691   11.2943 H   0  0
    1.3093    1.7889    9.3190 H   0  0
   -2.8928   -8.4133    4.0746 H   0  0
   -2.5985   -8.1977    2.3174 H   0  0
   -3.7055   -7.1141    3.1814 H   0  0
   -2.5381   -2.2422   -1.9360 H   0  0
   -3.1012   -0.9080   -0.9328 H   0  0
   -1.3746   -1.2754   -1.0156 H   0  0
   -4.1364   -3.8637   -0.7136 H   0  0
   -4.0491   -4.0161    1.0393 H   0  0
   -4.6889   -2.5342    0.3111 H   0  0
   -1.7181   -4.3641   -0.9841 H   0  0
   -0.4755   -3.4936   -0.0852 H   0  0
   -1.5683   -4.6123    0.7556 H   0  0
   -0.1355   -4.3233    3.6101 H   0  0
    0.1494   -5.1605    5.1277 H   0  0
  1  4  1  0
  1  8  2  0
  2  5  2  0
  2  8  1  0
  3  6  1  0
  3 10  2  0
  4 11  2  0
  5 11  1  0
  6 12  2  0
  7 12  1  0
  7 13  2  0
  8 15  1  0
  9 14  1  0
  9 15  2  0
  9 23  1  0
 10 13  1  0
 10 28  1  0
 11 32  1  0
 12 33  1  0
 13 34  1  0
 14 16  1  0
 14 25  2  0
 15 28  1  0
 16 26  2  0
 16 30  1  0
 17 24  1  0
 17 27  2  0
 17 30  1  0
 18 19  1  0
 18 29  2  0
 18 31  1  0
 20 24  1  0
 21 24  1  0
 22 24  1  0
 23 31  1  0
 25 28  1  0
 26 27  1  0
  1 35  1  0
  2 36  1  0
  3 37  1  0
  4 38  1  0
  5 39  1  0
  6 40  1  0
  7 41  1  0
 19 42  1  0
 19 43  1  0
 19 44  1  0
 20 45  1  0
 20 46  1  0
 20 47  1  0
 21 48  1  0
 21 49  1  0
 21 50  1  0
 22 51  1  0
 22 52  1  0
 22 53  1  0
 23 54  1  0
 23 55  1  0
M  END
> <Name>
70

> <Experimental_pIC50>
7.68

> <original_article_set>
test

$$$$
73
  SciTegic08162114073D

 54 58  0  0  0  0            999 V2000
    1.5180   -4.4288    7.4092 C   0  0
   -0.3819   -4.0312    8.8477 C   0  0
    0.9430   -0.7930    8.5456 C   0  0
    2.0682   -5.2769    8.3702 C   0  0
    0.1683   -4.8794    9.8087 C   0  0
    1.1855   -0.0846    9.7224 C   0  0
   -1.1693    0.4258    9.9004 C   0  0
   -2.7298   -5.4952    5.4561 C   0  0
    0.2930   -3.8058    7.6480 C   0  0
   -0.6469   -3.1833    5.3542 C   0  0
   -0.3557   -0.8920    8.0461 C   0  0
    1.3933   -5.5023    9.5699 C   0  0
    0.1293    0.5248   10.3998 C   0  0
   -1.4118   -0.2826    8.7235 C   0  0
   -1.1380   -1.9531    4.8774 C   0  0
   -0.2784   -2.9261    6.6521 C   0  0
   -1.6626   -1.6961    3.5216 C   0  0
   -2.2693   -1.9410    1.5246 C   0  0
   -2.3738   -1.7257   -0.9831 C   0  0
   -3.9230   -3.3120    0.2084 C   0  0
   -1.5091   -3.8554   -0.0352 C   0  0
   -0.5474   -4.4630    4.6268 C   0  0
   -2.5057   -2.6993    0.2080 C   0  0
   -3.7670   -6.0660    4.8880 N   0  0
   -1.0877   -0.9863    5.7977 N   0  0
   -2.1080   -0.5236    3.1348 N   0  0
   -2.5073   -0.6848    1.8211 N   0  0
   -3.5064   -6.0484    3.5364 N   0  0
   -2.3348   -5.4778    3.2839 N   0  0
   -1.8512   -5.1330    4.4854 N   0  0
   -0.5606   -1.6089    6.8657 N   0  0
   -1.7319   -2.6510    2.5541 O   0  0
    2.0706   -6.5504   10.7549 Cl  0  0
    0.4294    1.3985   11.8519 Cl  0  0
   -3.0383   -0.3765    8.1446 Cl  0  0
    2.0560   -4.2631    6.4789 H   0  0
   -1.3379   -3.5529    9.0483 H   0  0
    1.7769   -1.2626    8.0292 H   0  0
    3.0239   -5.7553    8.1706 H   0  0
   -0.3683   -5.0453   10.7393 H   0  0
    2.2026   -0.0158   10.1000 H   0  0
   -1.9914    0.9021   10.4305 H   0  0
   -2.5736   -5.3279    6.5117 H   0  0
   -2.5381   -2.2422   -1.9360 H   0  0
   -3.1012   -0.9080   -0.9328 H   0  0
   -1.3746   -1.2754   -1.0156 H   0  0
   -4.1364   -3.8637   -0.7136 H   0  0
   -4.0491   -4.0161    1.0393 H   0  0
   -4.6889   -2.5342    0.3111 H   0  0
   -1.7181   -4.3641   -0.9841 H   0  0
   -0.4755   -3.4936   -0.0852 H   0  0
   -1.5683   -4.6123    0.7556 H   0  0
   -0.1363   -4.3410    3.6054 H   0  0
    0.1314   -5.1836    5.1242 H   0  0
  1  4  1  0
  1  9  2  0
  2  5  2  0
  2  9  1  0
  3  6  1  0
  3 11  2  0
  4 12  2  0
  5 12  1  0
  6 13  2  0
  7 13  1  0
  7 14  2  0
  8 24  2  0
  8 30  1  0
  9 16  1  0
 10 15  1  0
 10 16  2  0
 10 22  1  0
 11 14  1  0
 11 31  1  0
 12 33  1  0
 13 34  1  0
 14 35  1  0
 15 17  1  0
 15 25  2  0
 16 31  1  0
 17 26  2  0
 17 32  1  0
 18 23  1  0
 18 27  2  0
 18 32  1  0
 19 23  1  0
 20 23  1  0
 21 23  1  0
 22 30  1  0
 24 28  1  0
 25 31  1  0
 26 27  1  0
 28 29  2  0
 29 30  1  0
  1 36  1  0
  2 37  1  0
  3 38  1  0
  4 39  1  0
  5 40  1  0
  6 41  1  0
  7 42  1  0
  8 43  1  0
 19 44  1  0
 19 45  1  0
 19 46  1  0
 20 47  1  0
 20 48  1  0
 20 49  1  0
 21 50  1  0
 21 51  1  0
 21 52  1  0
 22 53  1  0
 22 54  1  0
M  END
> <Name>
73

> <Experimental_pIC50>
8.12

> <original_article_set>
test

$$$$
71
  SciTegic08162114073D

 61 64  0  0  0  0            999 V2000
   -0.4029   -4.9436    8.0565 C   0  0
    1.5407   -3.5157    8.1999 C   0  0
   -1.0085   -1.3177    9.2030 C   0  0
    0.1490   -5.7914    9.0169 C   0  0
    2.0926   -4.3634    9.1604 C   0  0
   -0.8274   -0.6260   10.4006 C   0  0
    0.6593    0.9172    9.2846 C   0  0
    0.2930   -3.8058    7.6480 C   0  0
   -0.6469   -3.1833    5.3542 C   0  0
   -0.3557   -0.8920    8.0461 C   0  0
    1.3967   -5.5013    9.5689 C   0  0
    0.0065    0.4914   10.4414 C   0  0
    0.4782    0.2254    8.0869 C   0  0
   -1.1380   -1.9531    4.8774 C   0  0
   -0.2784   -2.9261    6.6521 C   0  0
   -1.6626   -1.6961    3.5216 C   0  0
   -2.2693   -1.9410    1.5246 C   0  0
   -3.1388   -6.7344    3.0954 C   0  0
   -1.2584   -7.5218    4.5848 C   0  0
   -2.3738   -1.7257   -0.9831 C   0  0
   -3.9230   -3.3120    0.2084 C   0  0
   -1.5091   -3.8554   -0.0352 C   0  0
   -0.5474   -4.4630    4.6268 C   0  0
   -1.7655   -6.4210    3.6670 C   0  0
   -2.5057   -2.6993    0.2080 C   0  0
   -1.0877   -0.9863    5.7977 N   0  0
   -2.1080   -0.5236    3.1348 N   0  0
   -2.5073   -0.6848    1.8211 N   0  0
   -0.5606   -1.6089    6.8657 N   0  0
   -1.8568   -5.1627    4.4475 N   0  3
   -1.7319   -2.6510    2.5541 O   0  0
    2.0770   -6.5456   10.7555 Cl  0  0
    0.2291    1.3444   11.9195 Cl  0  0
    1.3093    0.7917    6.6804 Cl  0  0
   -1.3764   -5.1832    7.6356 H   0  0
    2.0952   -2.6323    7.8918 H   0  0
   -1.6619   -2.1869    9.1874 H   0  0
   -0.4045   -6.6748    9.3254 H   0  0
    3.0660   -4.1254    9.5814 H   0  0
   -1.3426   -0.9691   11.2943 H   0  0
    1.3093    1.7889    9.3190 H   0  0
   -3.8569   -6.9229    3.9003 H   0  0
   -3.5215   -5.9054    2.4896 H   0  0
   -3.1055   -7.6272    2.4615 H   0  0
   -1.9748   -7.7110    5.3912 H   0  0
   -0.2993   -7.2549    5.0419 H   0  0
   -1.1203   -8.4587    4.0344 H   0  0
   -2.5381   -2.2422   -1.9360 H   0  0
   -3.1012   -0.9080   -0.9328 H   0  0
   -1.3746   -1.2754   -1.0156 H   0  0
   -4.1364   -3.8637   -0.7136 H   0  0
   -4.0491   -4.0161    1.0393 H   0  0
   -4.6889   -2.5342    0.3111 H   0  0
   -1.7181   -4.3641   -0.9841 H   0  0
   -0.4755   -3.4936   -0.0852 H   0  0
   -1.5683   -4.6123    0.7556 H   0  0
   -0.1372   -4.3378    3.6089 H   0  0
    0.1078   -5.1889    5.1407 H   0  0
   -1.0485   -6.2328    2.8613 H   0  0
   -2.2529   -5.3613    5.3734 H   0  0
   -2.5123   -4.5203    3.9876 H   0  0
  1  4  1  0
  1  8  2  0
  2  5  2  0
  2  8  1  0
  3  6  1  0
  3 10  2  0
  4 11  2  0
  5 11  1  0
  6 12  2  0
  7 12  1  0
  7 13  2  0
  8 15  1  0
  9 14  1  0
  9 15  2  0
  9 23  1  0
 10 13  1  0
 10 29  1  0
 11 32  1  0
 12 33  1  0
 13 34  1  0
 14 16  1  0
 14 26  2  0
 15 29  1  0
 16 27  2  0
 16 31  1  0
 17 25  1  0
 17 28  2  0
 17 31  1  0
 18 24  1  0
 19 24  1  0
 20 25  1  0
 21 25  1  0
 22 25  1  0
 23 30  1  0
 24 30  1  0
 26 29  1  0
 27 28  1  0
  1 35  1  0
  2 36  1  0
  3 37  1  0
  4 38  1  0
  5 39  1  0
  6 40  1  0
  7 41  1  0
 18 42  1  0
 18 43  1  0
 18 44  1  0
 19 45  1  0
 19 46  1  0
 19 47  1  0
 20 48  1  0
 20 49  1  0
 20 50  1  0
 21 51  1  0
 21 52  1  0
 21 53  1  0
 22 54  1  0
 22 55  1  0
 22 56  1  0
 23 57  1  0
 23 58  1  0
 24 59  1  0
 30 60  1  0
 30 61  1  0
M  CHG  1  30   1
M  END
> <Name>
71

> <Experimental_pIC50>
7.38

> <original_article_set>
test

$$$$
74
  SciTegic08162114073D

 60 66  0  0  0  0            999 V2000
    1.8786   -1.0483   -0.1128 C   0  0
    2.8849   -1.6400    2.0025 C   0  0
    7.7772    0.0378   -6.2691 C   0  0
    9.2187   -1.8136   -6.8447 C   0  0
    2.4305   -4.8016    0.5476 C   0  0
    0.8000   -0.4750    0.5607 C   0  0
    1.8063   -1.0666    2.6760 C   0  0
    7.3262    0.0966   -7.5877 C   0  0
    8.7677   -1.7548   -8.1634 C   0  0
    1.7730   -5.7710    1.3049 C   0  0
    3.7973   -6.1594    2.5652 C   0  0
    7.2296    1.3500    0.7186 C   0  0
    7.0751    1.1988   -1.3575 C   0  0
    2.9210   -1.6309    0.6081 C   0  0
    8.7235   -0.9173   -5.8976 C   0  0
    4.9367   -1.6582   -0.9572 C   0  0
    3.7715   -4.5112    0.7990 C   0  0
    0.7638   -0.4841    1.9551 C   0  0
    7.8215   -0.7996   -8.5349 C   0  0
    2.4564   -6.4499    2.3137 C   0  0
    4.4549   -5.1901    1.8078 C   0  0
    5.7949   -2.7158   -1.3131 C   0  0
    4.0369   -2.2241   -0.0873 C   0  0
    6.9424   -2.6270   -2.2366 C   0  0
    8.3854   -1.9010   -3.5807 C   0  0
   10.7078   -0.8666   -4.2265 C   0  0
    9.8191    0.2781   -3.8727 C   0  0
    9.2031   -0.9801   -4.4943 C   0  0
    4.9877   -0.2562   -1.4139 C   0  0
    7.8359    1.7470   -0.4387 N   0  0
    6.1417    0.5906    0.5737 N   0  0
    5.4696   -3.8664   -0.7179 N   0  0
    7.7082   -3.6518   -2.5301 N   0  0
    8.6575   -3.1742   -3.4142 N   0  0
    6.0648    0.5089   -0.7633 N   0  0
    4.3970   -3.5351    0.0209 N   0  0
    7.3083   -1.4764   -2.8650 O   0  0
   -0.5656    0.2251    2.7864 Cl  0  0
    7.2651   -0.7267  -10.1617 Cl  0  0
    1.6442   -7.6456    3.2478 Cl  0  0
    6.1170   -4.8661    2.1572 Cl  0  0
    1.8924   -1.0334   -1.1999 H   0  0
    3.6902   -2.0901    2.5785 H   0  0
    7.3860    0.7412   -5.5388 H   0  0
    9.9554   -2.5622   -6.5648 H   0  0
    1.8839   -4.2809   -0.2353 H   0  0
   -0.0056   -0.0249   -0.0142 H   0  0
    1.7910   -1.0815    3.7627 H   0  0
    6.5897    0.8471   -7.8633 H   0  0
    9.1616   -2.4603   -8.8906 H   0  0
    0.7279   -5.9869    1.0979 H   0  0
    4.3282   -6.6904    3.3525 H   0  0
    7.5908    1.6240    1.6986 H   0  0
    7.2039    1.2690   -2.4284 H   0  0
   11.3800   -0.7396   -5.0674 H   0  0
   11.1290   -1.4462   -3.4131 H   0  0
    9.6398    0.4704   -2.8207 H   0  0
    9.8928    1.1771   -4.4743 H   0  0
    5.1473   -0.1702   -2.5067 H   0  0
    4.0436    0.2896   -1.2189 H   0  0
  1  6  1  0
  1 14  2  0
  2  7  2  0
  2 14  1  0
  3  8  1  0
  3 15  2  0
  4  9  2  0
  4 15  1  0
  5 10  1  0
  5 17  2  0
  6 18  2  0
  7 18  1  0
  8 19  2  0
  9 19  1  0
 10 20  2  0
 11 20  1  0
 11 21  2  0
 12 30  1  0
 12 31  2  0
 13 30  2  0
 13 35  1  0
 14 23  1  0
 15 28  1  0
 16 22  1  0
 16 23  2  0
 16 29  1  0
 17 21  1  0
 17 36  1  0
 18 38  1  0
 19 39  1  0
 20 40  1  0
 21 41  1  0
 22 24  1  0
 22 32  2  0
 23 36  1  0
 24 33  2  0
 24 37  1  0
 25 28  1  0
 25 34  2  0
 25 37  1  0
 26 27  1  0
 26 28  1  0
 27 28  1  0
 29 35  1  0
 31 35  1  0
 32 36  1  0
 33 34  1  0
  1 42  1  0
  2 43  1  0
  3 44  1  0
  4 45  1  0
  5 46  1  0
  6 47  1  0
  7 48  1  0
  8 49  1  0
  9 50  1  0
 10 51  1  0
 11 52  1  0
 12 53  1  0
 13 54  1  0
 26 55  1  0
 26 56  1  0
 27 57  1  0
 27 58  1  0
 29 59  1  0
 29 60  1  0
M  END
> <Name>
74

> <Experimental_pIC50>
8.66

> <original_article_set>
test

$$$$
75
  SciTegic08162114073D

 60 66  0  0  0  0            999 V2000
    7.8108   -0.7998   -8.5432 C   0  0
    7.3142    0.0959   -7.5963 C   0  0
    8.7588   -1.7532   -8.1715 C   0  0
    1.8773   -1.0506   -0.1128 C   0  0
    2.8861   -1.6377    2.0025 C   0  0
    7.7656    0.0385   -6.2778 C   0  0
    9.2103   -1.8106   -6.8530 C   0  0
    2.4349   -4.8024    0.5508 C   0  0
    1.7797   -5.7720    1.3097 C   0  0
    0.7988   -0.4773    0.5606 C   0  0
    1.8075   -1.0644    2.6760 C   0  0
    3.8063   -6.1567    2.5676 C   0  0
    7.2258    1.3559    0.7103 C   0  0
    7.0687    1.2028   -1.3655 C   0  0
    2.9210   -1.6309    0.6081 C   0  0
    8.7138   -0.9148   -5.9061 C   0  0
    4.9347   -1.6568   -0.9599 C   0  0
    3.7758   -4.5099    0.8001 C   0  0
    2.4654   -6.4492    2.3182 C   0  0
    4.4614   -5.1870    1.8085 C   0  0
    0.7638   -0.4841    1.9550 C   0  0
    5.7939   -2.7135   -1.3162 C   0  0
    4.0369   -2.2232   -0.0884 C   0  0
    6.9400   -2.6239   -2.2413 C   0  0
    8.3802   -1.8971   -3.5880 C   0  0
   10.7003   -0.8600   -4.2378 C   0  0
    9.8105    0.2838   -3.8836 C   0  0
    9.1954   -0.9757   -4.5034 C   0  0
    4.9832   -0.2551   -1.4178 C   0  0
    7.8299    1.7528   -0.4482 N   0  0
    6.1387    0.5949    0.5675 N   0  0
    5.4710   -3.8641   -0.7196 N   0  0
    7.7068   -3.6479   -2.5350 N   0  0
    8.6543   -3.1697   -3.4208 N   0  0
    6.0602    0.5120   -0.7694 N   0  0
    4.3989   -3.5336    0.0204 N   0  0
    7.3034   -1.4733   -2.8712 O   0  0
    1.6561   -7.6452    3.2543 Cl  0  0
    6.1236   -4.8605    2.1555 Cl  0  0
   -0.6958    0.2956    2.8680 Br  0  0
    7.4590   -0.7552   -9.5698 H   0  0
    6.5758    0.8383   -7.8854 H   0  0
    9.1455   -2.4505   -8.9091 H   0  0
    1.8897   -1.0373   -1.2002 H   0  0
    3.6922   -2.0857    2.5787 H   0  0
    7.3733    0.7411   -5.5475 H   0  0
    9.9498   -2.5568   -6.5740 H   0  0
    1.8865   -4.2831   -0.2318 H   0  0
    0.7346   -5.9895    1.1043 H   0  0
   -0.0065   -0.0289   -0.0159 H   0  0
    1.7962   -1.0771    3.7629 H   0  0
    4.3389   -6.6863    3.3546 H   0  0
    7.5880    1.6312    1.6895 H   0  0
    7.1959    1.2723   -2.4366 H   0  0
   11.3712   -0.7328   -5.0797 H   0  0
   11.1234   -1.4384   -3.4245 H   0  0
    9.6324    0.4767   -2.8316 H   0  0
    9.8821    1.1824   -4.4861 H   0  0
    5.1412   -0.1698   -2.5110 H   0  0
    4.0386    0.2895   -1.2221 H   0  0
  1  2  2  0
  1  3  1  0
  2  6  1  0
  3  7  2  0
  4 10  1  0
  4 15  2  0
  5 11  2  0
  5 15  1  0
  6 16  2  0
  7 16  1  0
  8  9  1  0
  8 18  2  0
  9 19  2  0
 10 21  2  0
 11 21  1  0
 12 19  1  0
 12 20  2  0
 13 30  1  0
 13 31  2  0
 14 30  2  0
 14 35  1  0
 15 23  1  0
 16 28  1  0
 17 22  1  0
 17 23  2  0
 17 29  1  0
 18 20  1  0
 18 36  1  0
 19 38  1  0
 20 39  1  0
 21 40  1  0
 22 24  1  0
 22 32  2  0
 23 36  1  0
 24 33  2  0
 24 37  1  0
 25 28  1  0
 25 34  2  0
 25 37  1  0
 26 27  1  0
 26 28  1  0
 27 28  1  0
 29 35  1  0
 31 35  1  0
 32 36  1  0
 33 34  1  0
  1 41  1  0
  2 42  1  0
  3 43  1  0
  4 44  1  0
  5 45  1  0
  6 46  1  0
  7 47  1  0
  8 48  1  0
  9 49  1  0
 10 50  1  0
 11 51  1  0
 12 52  1  0
 13 53  1  0
 14 54  1  0
 26 55  1  0
 26 56  1  0
 27 57  1  0
 27 58  1  0
 29 59  1  0
 29 60  1  0
M  END
> <Name>
75

> <Experimental_pIC50>
9.02

> <original_article_set>
test

$$$$
9
  SciTegic08162114073D

 47 51  0  0  0  0            999 V2000
    1.8786   -1.0483   -0.1128 C   0  0
    2.8849   -1.6400    2.0025 C   0  0
    2.4305   -4.8016    0.5476 C   0  0
    0.8000   -0.4750    0.5607 C   0  0
    1.8063   -1.0666    2.6760 C   0  0
    1.7730   -5.7710    1.3049 C   0  0
    3.7973   -6.1594    2.5652 C   0  0
    2.9210   -1.6309    0.6081 C   0  0
    4.9367   -1.6582   -0.9572 C   0  0
    3.7715   -4.5112    0.7990 C   0  0
    0.7638   -0.4841    1.9551 C   0  0
    2.4564   -6.4499    2.3137 C   0  0
    4.4549   -5.1901    1.8078 C   0  0
    5.7949   -2.7158   -1.3131 C   0  0
    4.0369   -2.2241   -0.0873 C   0  0
    6.9424   -2.6270   -2.2366 C   0  0
    8.3854   -1.9010   -3.5807 C   0  0
   10.6856   -0.8114   -4.1712 C   0  0
    9.7397    0.3125   -3.8846 C   0  0
    9.2031   -0.9801   -4.4943 C   0  0
    4.9877   -0.2562   -1.4139 C   0  0
    8.8035   -0.9434   -5.9487 C   0  0
    5.4696   -3.8664   -0.7179 N   0  0
    7.7082   -3.6518   -2.5301 N   0  0
    8.6575   -3.1742   -3.4142 N   0  0
    4.3970   -3.5351    0.0209 N   0  0
    7.3083   -1.4764   -2.8650 O   0  0
    7.5284   -0.5272   -6.0840 F   0  0
    9.5958   -0.1008   -6.6413 F   0  0
    8.9063   -2.1676   -6.5038 F   0  0
   -0.5656    0.2251    2.7864 Cl  0  0
    1.6442   -7.6456    3.2478 Cl  0  0
    6.1170   -4.8661    2.1572 Cl  0  0
    1.8924   -1.0334   -1.1999 H   0  0
    3.6902   -2.0901    2.5785 H   0  0
    1.8839   -4.2809   -0.2353 H   0  0
   -0.0056   -0.0249   -0.0142 H   0  0
    1.7910   -1.0815    3.7627 H   0  0
    0.7279   -5.9869    1.0979 H   0  0
    4.3282   -6.6904    3.3525 H   0  0
   11.3888   -0.6827   -4.9857 H   0  0
   11.0896   -1.3567   -3.3261 H   0  0
    9.5077    0.5230   -2.8471 H   0  0
    9.8080    1.1983   -4.5057 H   0  0
    4.3852   -0.1126   -2.3260 H   0  0
    4.6084    0.4430   -0.6488 H   0  0
    6.0182    0.0691   -1.6389 H   0  0
  1  4  1  0
  1  8  2  0
  2  5  2  0
  2  8  1  0
  3  6  1  0
  3 10  2  0
  4 11  2  0
  5 11  1  0
  6 12  2  0
  7 12  1  0
  7 13  2  0
  8 15  1  0
  9 14  1  0
  9 15  2  0
  9 21  1  0
 10 13  1  0
 10 26  1  0
 11 31  1  0
 12 32  1  0
 13 33  1  0
 14 16  1  0
 14 23  2  0
 15 26  1  0
 16 24  2  0
 16 27  1  0
 17 20  1  0
 17 25  2  0
 17 27  1  0
 18 19  1  0
 18 20  1  0
 19 20  1  0
 20 22  1  0
 22 28  1  0
 22 29  1  0
 22 30  1  0
 23 26  1  0
 24 25  1  0
  1 34  1  0
  2 35  1  0
  3 36  1  0
  4 37  1  0
  5 38  1  0
  6 39  1  0
  7 40  1  0
 18 41  1  0
 18 42  1  0
 19 43  1  0
 19 44  1  0
 21 45  1  0
 21 46  1  0
 21 47  1  0
M  END
> <Name>
9

> <Experimental_pIC50>
8.07

> <original_article_set>
training

$$$$
8
  SciTegic08162114073D

 58 61  0  0  0  0            999 V2000
   -0.1270    8.2766   -0.6792 C   0  0
    1.2497    9.8768   -1.8543 C   0  0
    3.5052    8.6592    0.5461 C   0  0
   -0.9969    9.3004   -0.3040 C   0  0
    0.3798   10.9007   -1.4792 C   0  0
    4.1820    9.5962    1.3268 C   0  0
    5.6941   10.0316   -0.5066 C   0  0
    0.9963    8.5648   -1.4543 C   0  0
    1.6626    6.3709   -2.5835 C   0  0
    3.9228    8.4083   -0.7609 C   0  0
   -0.7435   10.6124   -0.7040 C   0  0
    5.2765   10.2824    0.8005 C   0  0
    5.0172    9.0945   -1.2873 C   0  0
    2.9093    5.7192   -2.6371 C   0  0
    1.8990    7.5039   -1.8439 C   0  0
    3.1910    4.4419   -3.3218 C   0  0
    2.9788    2.6717   -4.4342 C   0  0
    0.3866    5.9377   -3.1841 C   0  0
    0.3833   -0.7004   -1.0685 C   0  0
    3.1321    0.4326   -5.7207 C   0  0
    1.7092    2.2809   -6.5573 C   0  0
    0.0710   -0.0923   -2.4266 C   0  0
    1.3415    0.3904   -3.1303 C   0  0
    1.0102    1.0351   -4.4846 C   0  0
    2.2357    1.6089   -5.2640 C   0  0
    3.8667    6.3830   -1.9837 N   0  0
    4.3781    3.8821   -3.3366 N   0  0
    4.2385    2.7177   -4.0686 N   0  0
    3.2214    7.4637   -1.5127 N   0  0
    2.2463    3.7330   -3.9984 O   0  0
   -1.8176   11.8756   -0.2433 Cl  0  0
    6.1108   11.4385    1.7643 Cl  0  0
    5.5731    8.8185   -2.9011 Cl  0  0
   -0.3380    7.2589   -0.3597 H   0  0
    2.1212   10.1172   -2.4590 H   0  0
    2.6537    8.1326    0.9708 H   0  0
   -1.8682    9.0611    0.3006 H   0  0
    0.5900   11.9185   -1.7975 H   0  0
    3.8454    9.7816    2.3437 H   0  0
    6.5480   10.5679   -0.9149 H   0  0
   -0.1887    5.3081   -2.4853 H   0  0
   -0.2508    6.7937   -3.4654 H   0  0
    0.5404    5.3561   -4.1095 H   0  0
    0.8925    0.0223   -0.4228 H   0  0
    1.0245   -1.5817   -1.1712 H   0  0
   -0.5409   -1.0090   -0.5699 H   0  0
    2.5796   -0.3080   -6.3082 H   0  0
    3.9616    0.7889   -6.3429 H   0  0
    3.5743   -0.0897   -4.8637 H   0  0
    1.1697    1.5623   -7.1859 H   0  0
    2.5184    2.7034   -7.1631 H   0  0
    1.0206    3.1017   -6.3238 H   0  0
   -0.4371   -0.8397   -3.0469 H   0  0
   -0.6228    0.7460   -2.2934 H   0  0
    2.0135   -0.4626   -3.2723 H   0  0
    1.8579    1.1084   -2.4836 H   0  0
    0.5110    0.2830   -5.1114 H   0  0
    0.2637    1.8233   -4.3234 H   0  0
  1  4  1  0
  1  8  2  0
  2  5  2  0
  2  8  1  0
  3  6  1  0
  3 10  2  0
  4 11  2  0
  5 11  1  0
  6 12  2  0
  7 12  1  0
  7 13  2  0
  8 15  1  0
  9 14  1  0
  9 15  2  0
  9 18  1  0
 10 13  1  0
 10 29  1  0
 11 31  1  0
 12 32  1  0
 13 33  1  0
 14 16  1  0
 14 26  2  0
 15 29  1  0
 16 27  2  0
 16 30  1  0
 17 25  1  0
 17 28  2  0
 17 30  1  0
 19 22  1  0
 20 25  1  0
 21 25  1  0
 22 23  1  0
 23 24  1  0
 24 25  1  0
 26 29  1  0
 27 28  1  0
  1 34  1  0
  2 35  1  0
  3 36  1  0
  4 37  1  0
  5 38  1  0
  6 39  1  0
  7 40  1  0
 18 41  1  0
 18 42  1  0
 18 43  1  0
 19 44  1  0
 19 45  1  0
 19 46  1  0
 20 47  1  0
 20 48  1  0
 20 49  1  0
 21 50  1  0
 21 51  1  0
 21 52  1  0
 22 53  1  0
 22 54  1  0
 23 55  1  0
 23 56  1  0
 24 57  1  0
 24 58  1  0
M  END
> <Name>
8

> <Experimental_pIC50>
7.83

> <original_article_set>
training

$$$$
