In
  DSViewer          3D                             0

 80 84  0  0  0  0  0  0  0  0999 V2000
    4.4179    4.8159    4.0084 C   0  0
    5.7827    5.6431    2.1945 C   0  0
    4.9449    5.7945    4.8512 C   0  0
    6.3096    6.6217    3.0372 C   0  0
    4.8369    4.7401    2.6801 C   0  0
    5.8907    6.6974    4.3656 C   0  0
   -1.9790   -0.0004   -2.5441 C   0  0
    4.8630    3.0163    0.7811 C   0  0
   -3.5840    0.4439    0.1017 C   0  0
   -0.1547   -2.0428   -1.1164 C   0  0
   -0.0828    1.3670    1.6967 C   0  0
   -3.8349   -0.5363   -1.0325 C   0  0
    0.7872   -0.8870   -1.4275 C   0  0
   -2.7593   -0.2196    1.1879 C   0  0
    1.2019    1.0700    2.4692 C   0  0
    2.0778   -0.4578    0.7060 C   0  0
   -1.5305   -1.6151   -0.5628 C   0  0  2  0  0  0
   -0.3389    0.4568    0.4665 C   0  0  1  0  0  0
    1.7327    1.4385   -0.7178 C   0  0  2  0  0  0
    2.6084    1.8736    0.5068 C   0  0  1  0  0  0
   -2.5366   -1.0859   -1.6560 C   0  0  2  0  0  0
    1.0177    0.0936   -0.2663 C   0  0  2  0  0  0
    2.4152    0.7581    1.5681 C   0  0  1  0  0  0
   -1.3563   -0.7325    0.7284 C   0  0  1  0  0  0
   -2.9407   -2.2354   -2.6101 C   0  0
    3.6320    0.4909    2.4614 C   0  0
   -0.8948   -1.6458    1.8978 C   0  0
   -1.3619   -0.1748   -6.1465 C   0  0
    2.5284    1.3510   -2.0292 C   0  0
   -1.3855    0.4778   -4.7808 C   0  0
    4.3005    3.7450    1.8228 N   0  0
    3.9912    2.1153    0.1723 N   0  0
   -1.6553    1.1108   -2.1471 O   0  0
    3.0604    2.6297   -2.3070 O   0  0
   -1.9006   -0.4563   -3.8267 O   0  0
    6.4436    3.0551    0.2137 S   0  0
    6.5408    7.9050    5.4057 Cl  0  0
    3.6817    4.1172    4.3972 H   0  0
    6.1161    5.5931    1.1612 H   0  0
    4.6093    5.8420    5.8839 H   0  0
    7.0460    7.3187    2.6456 H   0  0
   -3.1005    1.3572   -0.2572 H   0  0
   -4.5484    0.7538    0.5221 H   0  0
   -0.2745   -2.6524   -2.0180 H   0  0
    0.3366   -2.7084   -0.3970 H   0  0
   -0.9171    1.3717    2.4011 H   0  0
   -0.0285    2.4043    1.3392 H   0  0
   -4.4387   -1.3689   -0.6466 H   0  0
   -4.4495   -0.0396   -1.7951 H   0  0
    1.7430   -1.3152   -1.7564 H   0  0
    0.4077   -0.3462   -2.2950 H   0  0
   -2.6823    0.4619    2.0396 H   0  0
   -3.3467   -1.0702    1.5634 H   0  0
    1.4268    1.9307    3.1125 H   0  0
    1.0272    0.2267    3.1481 H   0  0
    1.7513   -1.3066    1.3028 H   0  0
    2.9689   -0.7944    0.1582 H   0  0
   -1.9966   -2.5501   -0.2119 H   0  0
   -0.8707    1.1057   -0.2402 H   0  0
    0.9750    2.2147   -0.8890 H   0  0
    2.2469    2.8334    0.8946 H   0  0
   -3.3502   -3.0476   -2.0239 H   0  0
   -2.0619   -2.5692   -3.1458 H   0  0
   -3.6833   -1.8668   -3.3055 H   0  0
    4.4966    0.2693    1.8412 H   0  0
    3.4270   -0.3560    3.1110 H   0  0
    3.8379    1.3695    3.0674 H   0  0
    0.0790   -2.0456    1.6564 H   0  0
   -1.6126   -2.4447    2.0122 H   0  0
   -0.8457   -1.0510    2.7980 H   0  0
   -0.7210   -1.0609   -6.1446 H   0  0
   -2.3715   -0.4694   -6.4511 H   0  0
   -0.9932    0.5262   -6.9028 H   0  0
    1.8657    1.0460   -2.8341 H   0  0
    3.3363    0.6339   -1.9146 H   0  0
   -2.0282    1.3632   -4.7896 H   0  0
   -0.3759    0.7707   -4.4777 H   0  0
    3.3495    3.4807    2.0652 H   0  0
    4.3775    1.5816   -0.6051 H   0  0
    3.5611    2.5597   -3.1389 H   0  0
  1  3  1  0  0  0
  1  5  2  0  0  0
  2  4  2  0  0  0
  2  5  1  0  0  0
  3  6  2  0  0  0
  4  6  1  0  0  0
  5 31  1  0  0  0
  6 37  1  0  0  0
  7 21  1  0  0  0
  7 33  2  0  0  0
  7 35  1  0  0  0
  8 31  1  0  0  0
  8 32  1  0  0  0
  8 36  2  0  0  0
  9 12  1  0  0  0
  9 14  1  0  0  0
 10 13  1  0  0  0
 10 17  1  0  0  0
 11 15  1  0  0  0
 11 18  1  0  0  0
 12 21  1  0  0  0
 13 22  1  0  0  0
 14 24  1  0  0  0
 15 23  1  0  0  0
 16 22  1  0  0  0
 16 23  1  0  0  0
 17 21  1  0  0  0
 17 24  1  0  0  0
 18 22  1  0  0  0
 18 24  1  0  0  0
 19 20  1  0  0  0
 19 22  1  0  0  0
 19 29  1  0  0  0
 20 23  1  0  0  0
 20 32  1  0  0  0
 21 25  1  0  0  0
 23 26  1  0  0  0
 24 27  1  0  0  0
 28 30  1  0  0  0
 29 34  1  0  0  0
 30 35  1  0  0  0
  1 38  1  0  0  0
  2 39  1  0  0  0
  3 40  1  0  0  0
  4 41  1  0  0  0
  9 42  1  0  0  0
  9 43  1  0  0  0
 10 44  1  0  0  0
 10 45  1  0  0  0
 11 46  1  0  0  0
 11 47  1  0  0  0
 12 48  1  0  0  0
 12 49  1  0  0  0
 13 50  1  0  0  0
 13 51  1  0  0  0
 14 52  1  0  0  0
 14 53  1  0  0  0
 15 54  1  0  0  0
 15 55  1  0  0  0
 16 56  1  0  0  0
 16 57  1  0  0  0
 17 58  1  0  0  0
 18 59  1  0  0  0
 19 60  1  0  0  0
 20 61  1  0  0  0
 25 62  1  0  0  0
 25 63  1  0  0  0
 25 64  1  0  0  0
 26 65  1  0  0  0
 26 66  1  0  0  0
 26 67  1  0  0  0
 27 68  1  0  0  0
 27 69  1  0  0  0
 27 70  1  0  0  0
 28 71  1  0  0  0
 28 72  1  0  0  0
 28 73  1  0  0  0
 29 74  1  0  0  0
 29 75  1  0  0  0
 30 76  1  0  0  0
 30 77  1  0  0  0
 31 78  1  0  0  0
 32 79  1  0  0  0
 34 80  1  0  0  0
M  END
> <pIC50_JEKO-1>
-0.761

> <original_article_set>
test

$$$$
Iu
  SciTegic08162113593D

 82 86  0  0  1  0            999 V2000
    1.1573    2.9065   -9.1499 C   0  0
   -0.1818    2.9431   -9.5384 C   0  0
    1.4901    2.6813   -7.8142 C   0  0
   -1.1882    2.7548   -8.5912 C   0  0
    0.4837    2.4930   -6.8669 C   0  0
   -0.8555    2.5297   -7.2554 C   0  0
    0.4819   -1.9608    4.0400 C   0  0
    1.9001    2.7515   -4.7443 C   0  0
   -1.5219   -3.1215    1.0179 C   0  0
    0.6254    0.5300    2.1560 C   0  0
   -1.3070   -0.2273   -1.7514 C   0  0
   -0.8889   -3.1297    2.3964 C   0  0
    1.4832    0.6170    0.9007 C   0  0
   -2.2457   -1.8041    0.8082 C   0  0
   -1.4899    1.2045   -2.2553 C   0  0
    0.2081    2.1242   -0.6798 C   0  0
   -0.4189   -0.6058    2.1564 C   0  0  2  0  0  0
   -0.4709   -0.3698   -0.4500 C   0  0  1  0  0  0
    1.6225    0.4769   -1.6976 C   0  0  2  0  0  0
    0.9847    1.3658   -2.8190 C   0  0  1  0  0  0
    0.1650   -2.0174    2.5578 C   0  0  1  0  0  0
    0.7033    0.6898   -0.4184 C   0  0  2  0  0  0
   -0.2203    2.0741   -2.1459 C   0  0  1  0  0  0
   -1.3336   -0.5351    0.8734 C   0  0  1  0  0  0
    1.4591   -2.4559    1.8580 C   0  0
   -0.5373    3.4735   -2.6855 C   0  0
   -2.3356    0.6392    1.0575 C   0  0
   -1.8367   -1.2629    6.7833 C   0  0
    3.1192    0.7523   -1.4864 C   0  0
   -0.4968   -1.5879    6.1582 C   0  0
    0.8513    2.2643   -5.5157 N   0  0
    1.9177    2.2799   -3.4329 N   0  0
   -1.9020    2.3394   -6.3096 N   0  3
   -2.3216    1.1778   -6.0974 O   0  5
    1.5955   -2.1502    4.5102 O   0  0
   -2.3719    3.3396   -5.7183 O   0  0
    3.7925    0.4754   -2.6968 O   0  0
   -0.6530   -1.6718    4.7381 O   0  0
    3.0921    3.8527   -5.1782 S   0  0
    1.9407    3.0517   -9.8880 H   0  0
   -0.4410    3.1177  -10.5786 H   0  0
    2.5374    2.6549   -7.5247 H   0  0
   -2.2276    2.7866   -8.9085 H   0  0
   -0.7785   -3.2981    0.2347 H   0  0
   -2.2454   -3.9429    0.9522 H   0  0
    1.2828    0.4346    3.0286 H   0  0
    0.1123    1.4900    2.2910 H   0  0
   -2.2915   -0.6932   -1.6772 H   0  0
   -0.7986   -0.7992   -2.5396 H   0  0
   -1.6769   -3.0133    3.1540 H   0  0
   -0.4466   -4.1163    2.5875 H   0  0
    2.1349    1.4943    1.0049 H   0  0
    2.1611   -0.2349    0.8690 H   0  0
   -2.8047   -1.8566   -0.1294 H   0  0
   -3.0180   -1.7331    1.5879 H   0  0
   -1.8252    1.1642   -3.3001 H   0  0
   -2.3053    1.6815   -1.6986 H   0  0
   -0.5970    2.4540   -0.0268 H   0  0
    1.0250    2.8469   -0.5466 H   0  0
   -1.0920   -0.3550    2.9926 H   0  0
    0.0291   -1.3408   -0.5570 H   0  0
    1.5635   -0.5717   -2.0181 H   0  0
    0.6400    0.7288   -3.6422 H   0  0
    1.2887   -2.5135    0.7870 H   0  0
    1.7585   -3.4310    2.2308 H   0  0
    2.2430   -1.7325    2.0625 H   0  0
    0.3485    4.0994   -2.6153 H   0  0
   -1.3392    3.9157   -2.1001 H   0  0
   -0.8466    3.4007   -3.7249 H   0  0
   -1.7756    1.5608    1.1117 H   0  0
   -2.8867    0.4778    1.9718 H   0  0
   -3.0049    0.6531    0.2103 H   0  0
   -2.2162   -0.3050    6.4168 H   0  0
   -2.5690   -2.0442    6.5546 H   0  0
   -1.7522   -1.2154    7.8741 H   0  0
    3.4978    0.1062   -0.6993 H   0  0
    3.2604    1.7954   -1.2177 H   0  0
   -0.1230   -2.5470    6.5289 H   0  0
    0.2334   -0.8060    6.3870 H   0  0
    0.1828    1.6866   -5.0133 H   0  0
    2.6875    2.6111   -2.8533 H   0  0
    4.7379    0.6538   -2.5489 H   0  0
  1  2  2  0
  1  3  1  0
  2  4  1  0
  3  5  2  0
  4  6  2  0
  5  6  1  0
  5 31  1  0
  6 33  1  0
  7 21  1  0
  7 35  2  0
  7 38  1  0
  8 31  1  0
  8 32  1  0
  8 39  2  0
  9 12  1  0
  9 14  1  0
 10 13  1  0
 10 17  1  0
 11 15  1  0
 11 18  1  0
 12 21  1  0
 13 22  1  6
 14 24  1  0
 15 23  1  0
 16 22  1  0
 16 23  1  0
 17 21  1  0
 17 24  1  0
 18 22  1  0
 18 24  1  0
 19 20  1  0
 19 22  1  0
 19 29  1  0
 20 23  1  0
 20 32  1  0
 21 25  1  1
 23 26  1  6
 24 27  1  6
 28 30  1  0
 29 37  1  0
 30 38  1  0
 33 34  1  0
 33 36  2  0
  1 40  1  0
  2 41  1  0
  3 42  1  0
  4 43  1  0
  9 44  1  0
  9 45  1  0
 10 46  1  0
 10 47  1  0
 11 48  1  0
 11 49  1  0
 12 50  1  0
 12 51  1  0
 13 52  1  0
 13 53  1  0
 14 54  1  0
 14 55  1  0
 15 56  1  0
 15 57  1  0
 16 58  1  0
 16 59  1  0
 17 60  1  1
 18 61  1  1
 19 62  1  1
 20 63  1  1
 25 64  1  0
 25 65  1  0
 25 66  1  0
 26 67  1  0
 26 68  1  0
 26 69  1  0
 27 70  1  0
 27 71  1  0
 27 72  1  0
 28 73  1  0
 28 74  1  0
 28 75  1  0
 29 76  1  0
 29 77  1  0
 30 78  1  0
 30 79  1  0
 31 80  1  0
 32 81  1  0
 37 82  1  0
M  CHG  2  33   1  34  -1
M  END
> <Name>
Iu

> <pIC50_JEKO-1>
-1.43

> <original_article_set>
test

$$$$
Iw
  SciTegic08162113593D

 82 86  0  0  1  0            999 V2000
   -5.1735    3.5448   -4.8054 C   0  0
   -3.7203    5.3555   -5.4738 C   0  0
   -6.0253    3.8350   -5.8711 C   0  0
   -4.5721    5.6457   -6.5396 C   0  0
   -4.0210    4.3051   -4.6067 C   0  0
   -5.7246    4.8854   -6.7382 C   0  0
    2.8897   -2.5646    1.3726 C   0  0
   -2.3803    4.8252   -2.7050 C   0  0
    0.0502   -3.8635    0.8252 C   0  0
    1.5447    0.2549    1.5305 C   0  0
   -1.5894   -0.2641   -1.5523 C   0  0
    0.7327   -3.5556    2.1514 C   0  0
    0.5613    1.3995    1.3170 C   0  0
   -0.7234   -2.6651    0.2772 C   0  0
   -1.0040    0.5652   -2.6991 C   0  0
    0.5761    1.7618   -1.1999 C   0  0
    0.8034   -1.0920    1.5280 C   0  0  2  0  0  0
   -0.8463   -0.1417   -0.1962 C   0  0  2  0  0  0
   -1.3465    2.4264   -0.0043 C   0  0  2  0  0  0
   -1.6254    2.7170   -1.5011 C   0  0  2  0  0  0
    1.6127   -2.2872    2.1247 C   0  0  2  0  0  0
   -0.2507    1.2990    0.0154 C   0  0  1  0  0  0
   -0.5034    1.9626   -2.2693 C   0  0  2  0  0  0
    0.1282   -1.3631    0.1336 C   0  0  2  0  0  0
    2.0585   -2.0039    3.5752 C   0  0
    0.0486    2.6918   -3.4975 C   0  0
    1.1558   -1.6011   -0.9966 C   0  0
    5.6437   -0.2408    0.7366 C   0  0
   -2.6204    2.1817    0.7989 C   0  0
    4.9112   -1.5639    0.6683 C   0  0
   -3.1546    4.0099   -3.5226 N   0  0
   -1.6525    4.1420   -1.7334 N   0  0
   -6.5917    5.1807   -7.8232 N   0  3
   -7.6232    4.4846   -7.9843 O   0  5
    3.1663   -3.6437    0.8666 O   0  0
   -6.3026    6.1296   -8.5918 O   0  0
   -3.4296    3.3412    0.7245 O   0  0
    3.6611   -1.4405    1.3540 O   0  0
   -2.2578    6.5005   -2.7158 S   0  0
   -5.4176    2.7238   -4.1359 H   0  0
   -2.8249    5.9546   -5.3285 H   0  0
   -6.9203    3.2345   -6.0146 H   0  0
   -4.3260    6.4672   -7.2080 H   0  0
    0.7883   -4.2136    0.0962 H   0  0
   -0.6455   -4.6993    0.9689 H   0  0
    2.3341    0.2874    0.7740 H   0  0
    2.0350    0.4283    2.4933 H   0  0
   -2.6254    0.0639   -1.4002 H   0  0
   -1.6854   -1.3021   -1.8818 H   0  0
   -0.0480   -3.4365    2.9153 H   0  0
    1.3236   -4.4305    2.4522 H   0  0
   -0.1241    1.4231    2.1740 H   0  0
    1.1132    2.3476    1.3516 H   0  0
   -1.1527   -2.9594   -0.6866 H   0  0
   -1.5727   -2.4744    0.9467 H   0  0
   -0.1775    0.0100   -3.1592 H   0  0
   -1.7680    0.6657   -3.4811 H   0  0
    1.0856    2.7119   -0.9873 H   0  0
    1.3483    1.0632   -1.5175 H   0  0
   -0.0339   -0.9601    2.2344 H   0  0
   -1.6316   -0.2440    0.5674 H   0  0
   -0.8848    3.3249    0.4350 H   0  0
   -2.6139    2.3586   -1.8096 H   0  0
    1.1835   -1.7944    4.1786 H   0  0
    2.7233   -1.1486    3.5791 H   0  0
    2.5742   -2.8746    3.9621 H   0  0
    0.4043    3.6776   -3.2076 H   0  0
   -0.7362    2.7974   -4.2427 H   0  0
    0.8725    2.1220   -3.9207 H   0  0
    1.7592   -0.7101   -1.1150 H   0  0
    0.6236   -1.8136   -1.9151 H   0  0
    1.7835   -2.4414   -0.7283 H   0  0
    5.0614    0.5527    0.2603 H   0  0
    5.8384    0.0393    1.7771 H   0  0
    6.6166   -0.3124    0.2390 H   0  0
   -2.3705    1.9829    1.8410 H   0  0
   -3.1656    1.3344    0.3830 H   0  0
    5.4990   -2.3531    1.1464 H   0  0
    4.7168   -1.8419   -0.3718 H   0  0
   -3.1575    3.0263   -3.2667 H   0  0
   -1.0647    4.7172   -1.1325 H   0  0
   -4.2332    3.1622    1.2421 H   0  0
  1  3  1  0
  1  5  2  0
  2  4  2  0
  2  5  1  0
  3  6  2  0
  4  6  1  0
  5 31  1  0
  6 33  1  0
  7 21  1  0
  7 35  2  0
  7 38  1  0
  8 31  1  0
  8 32  1  0
  8 39  2  0
  9 12  1  0
  9 14  1  0
 10 13  1  0
 10 17  1  0
 11 15  1  0
 11 18  1  0
 12 21  1  0
 13 22  1  6
 14 24  1  0
 15 23  1  0
 16 22  1  0
 16 23  1  0
 17 21  1  0
 17 24  1  0
 18 22  1  0
 18 24  1  0
 19 20  1  0
 19 22  1  0
 19 29  1  0
 20 23  1  0
 20 32  1  0
 21 25  1  1
 23 26  1  1
 24 27  1  6
 28 30  1  0
 29 37  1  0
 30 38  1  0
 33 34  1  0
 33 36  2  0
  1 40  1  0
  2 41  1  0
  3 42  1  0
  4 43  1  0
  9 44  1  0
  9 45  1  0
 10 46  1  0
 10 47  1  0
 11 48  1  0
 11 49  1  0
 12 50  1  0
 12 51  1  0
 13 52  1  0
 13 53  1  0
 14 54  1  0
 14 55  1  0
 15 56  1  0
 15 57  1  0
 16 58  1  0
 16 59  1  0
 17 60  1  1
 18 61  1  1
 19 62  1  1
 20 63  1  1
 25 64  1  0
 25 65  1  0
 25 66  1  0
 26 67  1  0
 26 68  1  0
 26 69  1  0
 27 70  1  0
 27 71  1  0
 27 72  1  0
 28 73  1  0
 28 74  1  0
 28 75  1  0
 29 76  1  0
 29 77  1  0
 30 78  1  0
 30 79  1  0
 31 80  1  0
 32 81  1  0
 37 82  1  0
M  CHG  2  33   1  34  -1
M  END
> <Name>
Iw

> <pIC50_JEKO-1>
-0.549

> <original_article_set>
training

$$$$
Ij
  SciTegic08162113593D

 80 84  0  0  1  0            999 V2000
   -3.7135    4.1843   -7.7102 C   0  0
   -3.2689    3.3869   -6.6557 C   0  0
   -4.6051    5.2291   -7.4667 C   0  0
   -4.6075    4.6789   -5.1142 C   0  0
   -3.7158    3.6341   -5.3577 C   0  0
   -5.0521    5.4763   -6.1687 C   0  0
   -0.0020   -3.0010    1.1331 C   0  0
   -3.8919    2.3804   -3.1271 C   0  0
   -0.4285   -0.8921    3.4032 C   0  0
    2.0752   -1.1610   -0.2152 C   0  0
   -1.3014    1.6139    0.4719 C   0  0
    0.5330   -2.0673    3.3375 C   0  0
    0.9251   -1.1785   -1.2141 C   0  0
    0.2585    0.3685    2.9142 C   0  0
   -1.0035    2.7030   -0.5587 C   0  0
    0.5424    1.2435   -1.8531 C   0  0
    1.6429   -0.9987    1.2583 C   0  0  2  0  0  0
   -0.4021    0.3509    0.3864 C   0  0  1  0  0  0
   -1.3828   -0.1991   -1.9252 C   0  0  2  0  0  0
   -1.7245    1.1910   -2.5343 C   0  0  2  0  0  0
    1.0885   -2.3178    1.9215 C   0  0  2  0  0  0
   -0.0339    0.0174   -1.1164 C   0  0  2  0  0  0
   -0.6725    2.1662   -1.9639 C   0  0  1  0  0  0
    0.7800    0.3050    1.4425 C   0  0  1  0  0  0
    2.2208   -3.3643    2.0556 C   0  0
   -0.4042    3.3366   -2.9135 C   0  0
    1.7136    1.5417    1.3258 C   0  0
    0.1325   -6.2964   -0.4516 C   0  0
   -1.3348   -1.2422   -3.0483 C   0  0
   -0.5025   -4.9800   -0.0573 C   0  0
   -3.2630    2.8234   -4.2850 N   0  0
   -3.0896    1.5843   -2.3072 N   0  0
   -1.1043   -2.5130    0.9233 O   0  0
   -2.6059   -1.2878   -3.6648 O   0  0
    0.4380   -4.2193    0.7075 O   0  0
   -5.9082    6.4799   -5.9357 F   0  0
   -5.4763    2.6416   -2.6338 S   0  0
   -3.3650    3.9912   -8.7204 H   0  0
   -2.5743    2.5753   -6.8573 H   0  0
   -4.9517    5.8500   -8.2876 H   0  0
   -4.9632    4.8805   -4.1071 H   0  0
   -1.3416   -1.0891    2.8338 H   0  0
   -0.7427   -0.7488    4.4442 H   0  0
    2.6686   -2.0718   -0.3451 H   0  0
    2.7579   -0.3468   -0.4855 H   0  0
   -1.2969    2.0682    1.4648 H   0  0
   -2.3416    1.2921    0.3300 H   0  0
    1.3643   -1.8767    4.0300 H   0  0
    0.0190   -2.9615    3.7146 H   0  0
    1.3579   -1.2347   -2.2214 H   0  0
    0.3669   -2.1081   -1.0965 H   0  0
   -0.4102    1.2195    3.0701 H   0  0
    1.1076    0.5536    3.5883 H   0  0
   -1.8596    3.3882   -0.6031 H   0  0
   -0.1620    3.3093   -0.2012 H   0  0
    1.3805    1.7261   -1.3558 H   0  0
    0.9008    0.9615   -2.8530 H   0  0
    2.5784   -0.8045    1.8075 H   0  0
   -1.0622   -0.4676    0.6988 H   0  0
   -2.1755   -0.5241   -1.2390 H   0  0
   -1.6194    1.1478   -3.6263 H   0  0
    3.0358   -2.9263    2.6166 H   0  0
    2.5575   -3.6426    1.0657 H   0  0
    1.8346   -4.2313    2.5752 H   0  0
   -0.1706    2.9565   -3.9053 H   0  0
    0.4360    3.9207   -2.5454 H   0  0
   -1.2859    3.9709   -2.9700 H   0  0
    2.1200    1.5709    0.3256 H   0  0
    2.5066    1.4419    2.0522 H   0  0
    1.1315    2.4300    1.5224 H   0  0
    1.0256   -6.1318   -1.0608 H   0  0
    0.4118   -6.8718    0.4371 H   0  0
   -0.5741   -6.9108   -1.0195 H   0  0
   -1.0963   -2.2171   -2.6298 H   0  0
   -0.5836   -0.9553   -3.7801 H   0  0
   -1.3951   -5.1517    0.5517 H   0  0
   -0.7802   -4.4060   -0.9464 H   0  0
   -2.3276    2.4539   -4.4321 H   0  0
   -3.5289    1.2626   -1.4435 H   0  0
   -2.5585   -1.9530   -4.3736 H   0  0
  1  2  1  0
  1  3  2  0
  2  5  2  0
  3  6  1  0
  4  5  1  0
  4  6  2  0
  5 31  1  0
  6 36  1  0
  7 21  1  0
  7 33  2  0
  7 35  1  0
  8 31  1  0
  8 32  1  0
  8 37  2  0
  9 12  1  0
  9 14  1  0
 10 13  1  0
 10 17  1  0
 11 15  1  0
 11 18  1  0
 12 21  1  0
 13 22  1  1
 14 24  1  0
 15 23  1  0
 16 22  1  0
 16 23  1  0
 17 21  1  0
 17 24  1  0
 18 22  1  0
 18 24  1  0
 19 20  1  0
 19 22  1  0
 19 29  1  0
 20 23  1  0
 20 32  1  0
 21 25  1  1
 23 26  1  1
 24 27  1  6
 28 30  1  0
 29 34  1  0
 30 35  1  0
  1 38  1  0
  2 39  1  0
  3 40  1  0
  4 41  1  0
  9 42  1  0
  9 43  1  0
 10 44  1  0
 10 45  1  0
 11 46  1  0
 11 47  1  0
 12 48  1  0
 12 49  1  0
 13 50  1  0
 13 51  1  0
 14 52  1  0
 14 53  1  0
 15 54  1  0
 15 55  1  0
 16 56  1  0
 16 57  1  0
 17 58  1  6
 18 59  1  1
 19 60  1  6
 20 61  1  1
 25 62  1  0
 25 63  1  0
 25 64  1  0
 26 65  1  0
 26 66  1  0
 26 67  1  0
 27 68  1  0
 27 69  1  0
 27 70  1  0
 28 71  1  0
 28 72  1  0
 28 73  1  0
 29 74  1  0
 29 75  1  0
 30 76  1  0
 30 77  1  0
 31 78  1  0
 32 79  1  0
 34 80  1  0
M  END
> <Name>
Ij

> <pIC50_JEKO-1>
-1.461

> <original_article_set>
test

$$$$
If
  SciTegic08162113593D

 83 87  0  0  1  0            999 V2000
    0.2564    8.2607    6.2326 C   0  0
   -0.9153    7.5049    6.2692 C   0  0
    1.1946    8.0445    5.2232 C   0  0
   -1.1488    6.5327    5.2966 C   0  0
    0.9611    7.0723    4.2506 C   0  0
   -0.2106    6.3164    4.2873 C   0  0
    0.9299   -2.8829   -3.3453 C   0  0
   -1.6444    4.8939    2.7064 C   0  0
   -1.7766   -3.1398   -1.5147 C   0  0
    1.6551   -0.5228   -1.3185 C   0  0
   -1.7523    0.5433    1.2798 C   0  0
   -0.4340   -3.8570   -1.5420 C   0  0
    1.2553    0.9454   -1.2311 C   0  0
   -1.8523   -2.0483   -0.4434 C   0  0
   -1.0199    1.0521    2.5242 C   0  0
    1.1373    1.3203    1.2870 C   0  0
    0.4122   -1.4218   -1.4206 C   0  0  1  0  0  0
   -0.8490    0.2595    0.0531 C   0  0  1  0  0  0
   -0.2380    2.7488   -0.0918 C   0  0  2  0  0  0
   -0.2403    3.2413    1.3815 C   0  0  2  0  0  0
    0.7386   -2.8946   -1.8413 C   0  0  2  0  0  0
    0.3504    1.2771   -0.0352 C   0  0  2  0  0  0
    0.1501    2.0143    2.2313 C   0  0  1  0  0  0
   -0.5115   -1.2809   -0.1656 C   0  0  1  0  0  0
    1.9836    6.8624    3.1813 C   0  0
    2.0359   -3.4728   -1.2518 C   0  0
    0.8223    2.4223    3.5450 C   0  0
    0.1247   -1.9234    1.0890 C   0  0
   -1.5072   -1.8907   -5.8880 C   0  0
    0.5344    3.7480   -0.9605 C   0  0
   -0.1720   -2.3876   -5.3762 C   0  0
   -0.4665    5.3228    3.3073 N   0  0
   -1.4722    3.8718    1.7710 N   0  0
    1.9642   -3.2171   -3.9071 O   0  0
   -0.1139    5.0014   -0.8775 O   0  0
   -0.2140   -2.4485   -3.9470 O   0  0
   -3.2037    5.4774    2.9301 S   0  0
    0.4387    9.0173    6.9899 H   0  0
   -1.6455    7.6727    7.0557 H   0  0
    2.1044    8.6385    5.2038 H   0  0
   -2.0659    5.9505    5.3360 H   0  0
   -1.9536   -2.6807   -2.4984 H   0  0
   -2.5873   -3.8690   -1.3866 H   0  0
    2.2882   -0.6428   -2.2099 H   0  0
    2.2915   -0.7958   -0.4666 H   0  0
   -2.3642   -0.3183    1.5540 H   0  0
   -2.4782    1.3122    0.9873 H   0  0
   -0.2752   -4.3701   -0.5940 H   0  0
   -0.4795   -4.6303   -2.3110 H   0  0
    2.1678    1.5510   -1.2069 H   0  0
    0.7343    1.2015   -2.1612 H   0  0
   -2.6265   -1.3246   -0.7485 H   0  0
   -2.2282   -2.5128    0.4805 H   0  0
   -1.7491    1.5288    3.1911 H   0  0
   -0.6358    0.1925    3.0860 H   0  0
    1.4502    0.3480    1.6629 H   0  0
    2.0502    1.9208    1.1751 H   0  0
   -0.1707   -1.0302   -2.2583 H   0  0
   -1.4876    0.5012   -0.8146 H   0  0
   -1.2601    2.7203   -0.4907 H   0  0
    0.5297    4.0207    1.5072 H   0  0
    2.7134    6.1085    3.4975 H   0  0
    1.5163    6.5276    2.2474 H   0  0
    2.5172    7.7938    2.9561 H   0  0
    1.9583   -3.5064   -0.1686 H   0  0
    2.8748   -2.8431   -1.5351 H   0  0
    2.1917   -4.4776   -1.6349 H   0  0
    1.6468    3.1005    3.3381 H   0  0
    1.2022    1.5379    4.0508 H   0  0
    0.0987    2.9206    4.1859 H   0  0
    1.0555   -1.4161    1.3102 H   0  0
    0.3124   -2.9713    0.8905 H   0  0
   -0.5599   -1.8210    1.9219 H   0  0
   -2.3147   -2.5657   -5.5911 H   0  0
   -1.7217   -0.8900   -5.4985 H   0  0
   -1.4966   -1.8115   -6.9801 H   0  0
    0.5383    3.4067   -1.9931 H   0  0
    1.5539    3.8391   -0.5932 H   0  0
    0.6311   -1.7080   -5.6766 H   0  0
    0.0404   -3.3877   -5.7656 H   0  0
    0.3806    4.8977    2.9403 H   0  0
   -2.3281    3.5319    1.3306 H   0  0
    0.3883    5.6225   -1.4334 H   0  0
  1  2  2  0
  1  3  1  0
  2  4  1  0
  3  5  2  0
  4  6  2  0
  5  6  1  0
  5 25  1  0
  6 32  1  0
  7 21  1  0
  7 34  2  0
  7 36  1  0
  8 32  1  0
  8 33  1  0
  8 37  2  0
  9 12  1  0
  9 14  1  0
 10 13  1  0
 10 17  1  0
 11 15  1  0
 11 18  1  0
 12 21  1  0
 13 22  1  6
 14 24  1  0
 15 23  1  0
 16 22  1  0
 16 23  1  0
 17 21  1  0
 17 24  1  0
 18 22  1  0
 18 24  1  0
 19 20  1  0
 19 22  1  0
 19 30  1  0
 20 23  1  0
 20 33  1  0
 21 26  1  1
 23 27  1  1
 24 28  1  6
 29 31  1  0
 30 35  1  0
 31 36  1  0
  1 38  1  0
  2 39  1  0
  3 40  1  0
  4 41  1  0
  9 42  1  0
  9 43  1  0
 10 44  1  0
 10 45  1  0
 11 46  1  0
 11 47  1  0
 12 48  1  0
 12 49  1  0
 13 50  1  0
 13 51  1  0
 14 52  1  0
 14 53  1  0
 15 54  1  0
 15 55  1  0
 16 56  1  0
 16 57  1  0
 17 58  1  1
 18 59  1  1
 19 60  1  6
 20 61  1  6
 25 62  1  0
 25 63  1  0
 25 64  1  0
 26 65  1  0
 26 66  1  0
 26 67  1  0
 27 68  1  0
 27 69  1  0
 27 70  1  0
 28 71  1  0
 28 72  1  0
 28 73  1  0
 29 74  1  0
 29 75  1  0
 29 76  1  0
 30 77  1  0
 30 78  1  0
 31 79  1  0
 31 80  1  0
 32 81  1  0
 33 82  1  0
 35 83  1  0
M  END
> <Name>
If

> <pIC50_JEKO-1>
-1.392

> <original_article_set>
test

$$$$
Ie
  SciTegic08162113593D

 80 84  0  0  1  0            999 V2000
    0.2931    8.2701    6.2139 C   0  0
    1.2189    8.0388    5.1966 C   0  0
   -0.8845    7.5244    6.2681 C   0  0
    0.9670    7.0620    4.2332 C   0  0
   -1.1364    6.5476    5.3047 C   0  0
   -0.2106    6.3164    4.2873 C   0  0
    0.9299   -2.8829   -3.3453 C   0  0
   -1.6444    4.8939    2.7064 C   0  0
   -1.7766   -3.1398   -1.5147 C   0  0
    1.6551   -0.5228   -1.3185 C   0  0
   -1.7523    0.5433    1.2798 C   0  0
   -0.4340   -3.8570   -1.5420 C   0  0
    1.2553    0.9454   -1.2311 C   0  0
   -1.8523   -2.0483   -0.4434 C   0  0
   -1.0199    1.0521    2.5242 C   0  0
    1.1373    1.3203    1.2870 C   0  0
    0.4122   -1.4218   -1.4206 C   0  0  1  0  0  0
   -0.8490    0.2595    0.0531 C   0  0  1  0  0  0
   -0.2380    2.7488   -0.0918 C   0  0  2  0  0  0
   -0.2403    3.2413    1.3815 C   0  0  2  0  0  0
    0.7386   -2.8946   -1.8413 C   0  0  2  0  0  0
    0.3504    1.2771   -0.0352 C   0  0  2  0  0  0
    0.1501    2.0143    2.2313 C   0  0  1  0  0  0
   -0.5115   -1.2809   -0.1656 C   0  0  1  0  0  0
    2.0359   -3.4728   -1.2518 C   0  0
    0.8223    2.4223    3.5450 C   0  0
    0.1247   -1.9234    1.0890 C   0  0
   -1.5072   -1.8907   -5.8880 C   0  0
    0.5344    3.7480   -0.9605 C   0  0
   -0.1720   -2.3876   -5.3762 C   0  0
   -0.4665    5.3228    3.3073 N   0  0
   -1.4722    3.8718    1.7710 N   0  0
    1.9642   -3.2171   -3.9071 O   0  0
   -0.1139    5.0014   -0.8775 O   0  0
   -0.2140   -2.4485   -3.9470 O   0  0
   -3.2037    5.4774    2.9301 S   0  0
    0.4893    9.0301    6.9647 H   0  0
    2.1363    8.6185    5.1547 H   0  0
   -1.6047    7.7041    7.0610 H   0  0
    1.6959    6.8905    3.4451 H   0  0
   -2.0576    5.9726    5.3570 H   0  0
   -1.9536   -2.6807   -2.4984 H   0  0
   -2.5873   -3.8690   -1.3866 H   0  0
    2.2882   -0.6428   -2.2099 H   0  0
    2.2915   -0.7958   -0.4666 H   0  0
   -2.3642   -0.3183    1.5540 H   0  0
   -2.4782    1.3122    0.9873 H   0  0
   -0.2752   -4.3701   -0.5940 H   0  0
   -0.4795   -4.6303   -2.3110 H   0  0
    2.1678    1.5510   -1.2069 H   0  0
    0.7343    1.2015   -2.1612 H   0  0
   -2.6265   -1.3246   -0.7485 H   0  0
   -2.2282   -2.5128    0.4805 H   0  0
   -1.7491    1.5288    3.1911 H   0  0
   -0.6358    0.1925    3.0860 H   0  0
    1.4502    0.3480    1.6629 H   0  0
    2.0502    1.9208    1.1751 H   0  0
   -0.1707   -1.0302   -2.2583 H   0  0
   -1.4876    0.5012   -0.8146 H   0  0
   -1.2601    2.7203   -0.4907 H   0  0
    0.5297    4.0207    1.5072 H   0  0
    1.9583   -3.5064   -0.1686 H   0  0
    2.8748   -2.8431   -1.5351 H   0  0
    2.1917   -4.4776   -1.6349 H   0  0
    1.6468    3.1005    3.3381 H   0  0
    1.2022    1.5379    4.0508 H   0  0
    0.0987    2.9206    4.1859 H   0  0
    1.0555   -1.4161    1.3102 H   0  0
    0.3124   -2.9713    0.8905 H   0  0
   -0.5599   -1.8210    1.9219 H   0  0
   -2.3147   -2.5657   -5.5911 H   0  0
   -1.7217   -0.8900   -5.4985 H   0  0
   -1.4966   -1.8115   -6.9801 H   0  0
    0.5383    3.4067   -1.9931 H   0  0
    1.5539    3.8391   -0.5932 H   0  0
    0.6311   -1.7080   -5.6766 H   0  0
    0.0404   -3.3877   -5.7656 H   0  0
    0.3806    4.8977    2.9403 H   0  0
   -2.3281    3.5319    1.3306 H   0  0
    0.3883    5.6225   -1.4334 H   0  0
  1  2  2  0
  1  3  1  0
  2  4  1  0
  3  5  2  0
  4  6  2  0
  5  6  1  0
  6 31  1  0
  7 21  1  0
  7 33  2  0
  7 35  1  0
  8 31  1  0
  8 32  1  0
  8 36  2  0
  9 12  1  0
  9 14  1  0
 10 13  1  0
 10 17  1  0
 11 15  1  0
 11 18  1  0
 12 21  1  0
 13 22  1  6
 14 24  1  0
 15 23  1  0
 16 22  1  0
 16 23  1  0
 17 21  1  0
 17 24  1  0
 18 22  1  0
 18 24  1  0
 19 20  1  0
 19 22  1  0
 19 29  1  0
 20 23  1  0
 20 32  1  0
 21 25  1  1
 23 26  1  1
 24 27  1  6
 28 30  1  0
 29 34  1  0
 30 35  1  0
  1 37  1  0
  2 38  1  0
  3 39  1  0
  4 40  1  0
  5 41  1  0
  9 42  1  0
  9 43  1  0
 10 44  1  0
 10 45  1  0
 11 46  1  0
 11 47  1  0
 12 48  1  0
 12 49  1  0
 13 50  1  0
 13 51  1  0
 14 52  1  0
 14 53  1  0
 15 54  1  0
 15 55  1  0
 16 56  1  0
 16 57  1  0
 17 58  1  1
 18 59  1  1
 19 60  1  6
 20 61  1  1
 25 62  1  0
 25 63  1  0
 25 64  1  0
 26 65  1  0
 26 66  1  0
 26 67  1  0
 27 68  1  0
 27 69  1  0
 27 70  1  0
 28 71  1  0
 28 72  1  0
 28 73  1  0
 29 74  1  0
 29 75  1  0
 30 76  1  0
 30 77  1  0
 31 78  1  0
 32 79  1  0
 34 80  1  0
M  END
> <Name>
Ie

> <pIC50_JEKO-1>
-1.437

> <original_article_set>
training

$$$$
Id
  SciTegic08162113593D

 71 74  0  0  1  0            999 V2000
    1.1750   -0.2785    2.9441 C   0  0
   -3.5028    4.2671   -1.3512 C   0  0
    3.4317   -0.3577    0.7762 C   0  0
   -0.6445   -2.0005    1.1451 C   0  0
    0.7062    1.1639   -1.6485 C   0  0
    3.1828   -1.2856    1.9541 C   0  0
   -1.3726   -0.6643    1.1815 C   0  0
    2.7667   -0.9096   -0.4704 C   0  0
   -0.4035    1.1330   -2.7020 C   0  0
   -1.9628   -0.0970   -1.2188 C   0  0
    0.8824   -1.8979    0.9421 C   0  0  2  0  0  0
    0.4535    0.3059   -0.3781 C   0  0  1  0  0  0
   -1.6744    1.6930    0.2855 C   0  0  1  0  0  0
   -1.9820    2.3160   -1.1005 C   0  0  1  0  0  0
    1.6855   -1.5126    2.2425 C   0  0  2  0  0  0
   -1.0776    0.2655   -0.0072 C   0  0  2  0  0  0
   -1.8283    1.1424   -2.1079 C   0  0  1  0  0  0
    1.2175   -1.0862   -0.3654 C   0  0  1  0  0  0
   -4.9359    4.6804   -1.2887 C   0  0
    1.5913   -2.6509    3.2868 C   0  0
   -2.8445    1.1288   -3.2531 C   0  0
    0.8558   -1.9582   -1.5997 C   0  0
   -0.3174   -0.0749    6.2787 C   0  0
   -0.8672    2.6246    1.1842 C   0  0
    0.1745    0.4634    4.9521 C   0  0
   -3.2910    2.9261   -1.0906 N   0  0
    1.2019    0.8451    2.4604 O   0  0
   -2.6448    5.1004   -1.6180 O   0  0
   -1.6060    3.8171    1.3767 O   0  0
    0.6933   -0.6193    4.1732 O   0  0
    3.0885    0.6592    0.9880 H   0  0
    4.5125   -0.2854    0.6043 H   0  0
   -0.8773   -2.5542    2.0604 H   0  0
   -1.0765   -2.6071    0.3404 H   0  0
    1.6509    0.9219   -2.1398 H   0  0
    0.8333    2.2063   -1.3293 H   0  0
    3.6672   -2.2494    1.7462 H   0  0
    3.6879   -0.8731    2.8377 H   0  0
   -2.4505   -0.8683    1.2385 H   0  0
   -1.1480   -0.1490    2.1176 H   0  0
    3.0466   -0.2878   -1.3252 H   0  0
    3.2264   -1.8877   -0.6741 H   0  0
   -0.2717    1.9931   -3.3715 H   0  0
   -0.2765    0.2424   -3.3297 H   0  0
   -1.6787   -1.0098   -1.7380 H   0  0
   -3.0097   -0.2321   -0.9124 H   0  0
    1.2086   -2.9293    0.7310 H   0  0
    0.9345    0.8661    0.4298 H   0  0
   -2.6329    1.5344    0.8052 H   0  0
   -1.2902    3.1296   -1.3455 H   0  0
   -5.2361    5.0058   -0.2797 H   0  0
   -5.1560    5.5354   -1.9479 H   0  0
   -5.6634    3.9025   -1.5708 H   0  0
    1.9470   -3.5680    2.8362 H   0  0
    0.5585   -2.7613    3.5901 H   0  0
    2.2046   -2.3929    4.1402 H   0  0
   -3.8531    1.1352   -2.8465 H   0  0
   -2.7049    0.2336   -3.8546 H   0  0
   -2.7027    2.0077   -3.8776 H   0  0
   -0.2109   -2.1270   -1.5989 H   0  0
    1.3860   -2.8960   -1.5236 H   0  0
    1.1531   -1.4280   -2.4925 H   0  0
   -1.1128   -0.8106    6.1306 H   0  0
    0.5017   -0.5463    6.8317 H   0  0
   -0.6996    0.7368    6.9067 H   0  0
    0.0859    2.8634    0.7122 H   0  0
   -0.6909    2.1502    2.1497 H   0  0
    0.9698    1.1986    5.1074 H   0  0
   -0.6453    0.9333    4.4006 H   0  0
   -4.0953    2.3412   -0.8820 H   0  0
   -1.0732    4.3934    1.9508 H   0  0
  1 15  1  6
  1 27  2  0
  1 30  1  0
  2 19  1  0
  2 26  1  0
  2 28  2  0
  3  6  1  0
  3  8  1  0
  4  7  1  0
  4 11  1  0
  5  9  1  0
  5 12  1  0
  6 15  1  0
  7 16  1  6
  8 18  1  0
  9 17  1  0
 10 16  1  0
 10 17  1  0
 11 15  1  0
 11 18  1  0
 12 16  1  0
 12 18  1  0
 13 14  1  0
 13 16  1  0
 13 24  1  0
 14 17  1  0
 14 26  1  0
 15 20  1  0
 17 21  1  1
 18 22  1  6
 23 25  1  0
 24 29  1  0
 25 30  1  0
  3 31  1  0
  3 32  1  0
  4 33  1  0
  4 34  1  0
  5 35  1  0
  5 36  1  0
  6 37  1  0
  6 38  1  0
  7 39  1  0
  7 40  1  0
  8 41  1  0
  8 42  1  0
  9 43  1  0
  9 44  1  0
 10 45  1  0
 10 46  1  0
 11 47  1  1
 12 48  1  1
 13 49  1  1
 14 50  1  1
 19 51  1  0
 19 52  1  0
 19 53  1  0
 20 54  1  0
 20 55  1  0
 20 56  1  0
 21 57  1  0
 21 58  1  0
 21 59  1  0
 22 60  1  0
 22 61  1  0
 22 62  1  0
 23 63  1  0
 23 64  1  0
 23 65  1  0
 24 66  1  0
 24 67  1  0
 25 68  1  0
 25 69  1  0
 26 70  1  0
 29 71  1  0
M  END
> <Name>
Id

> <pIC50_JEKO-1>
-1.792

> <original_article_set>
test

$$$$
Iq
  SciTegic08162113593D

 80 84  0  0  1  0            999 V2000
    4.4179    4.8159    4.0084 C   0  0
    5.7827    5.6430    2.1945 C   0  0
    4.9449    5.7945    4.8512 C   0  0
    6.3097    6.6217    3.0372 C   0  0
    4.8369    4.7401    2.6801 C   0  0
    5.8908    6.6974    4.3656 C   0  0
   -1.9790   -0.0004   -2.5441 C   0  0
    4.8630    3.0163    0.7811 C   0  0
   -3.5840    0.4439    0.1017 C   0  0
   -0.1547   -2.0428   -1.1164 C   0  0
   -0.0828    1.3670    1.6967 C   0  0
   -3.8349   -0.5363   -1.0325 C   0  0
    0.7872   -0.8870   -1.4275 C   0  0
   -2.7593   -0.2196    1.1879 C   0  0
    1.2019    1.0700    2.4692 C   0  0
    2.0778   -0.4578    0.7060 C   0  0
   -1.5305   -1.6151   -0.5628 C   0  0  2  0  0  0
   -0.3389    0.4568    0.4665 C   0  0  1  0  0  0
    1.7327    1.4385   -0.7178 C   0  0  2  0  0  0
    2.6084    1.8736    0.5068 C   0  0  1  0  0  0
   -2.5366   -1.0859   -1.6560 C   0  0  2  0  0  0
    1.0177    0.0936   -0.2663 C   0  0  2  0  0  0
    2.4152    0.7581    1.5681 C   0  0  1  0  0  0
   -1.3563   -0.7325    0.7284 C   0  0  1  0  0  0
   -2.9407   -2.2354   -2.6101 C   0  0
    3.6320    0.4909    2.4614 C   0  0
   -0.8948   -1.6458    1.8978 C   0  0
   -1.3619   -0.1748   -6.1465 C   0  0
    2.5284    1.3510   -2.0292 C   0  0
   -1.3855    0.4778   -4.7808 C   0  0
    4.3005    3.7450    1.8228 N   0  0
    3.9912    2.1153    0.1723 N   0  0
   -1.6553    1.1108   -2.1471 O   0  0
    3.0604    2.6297   -2.3070 O   0  0
   -1.9006   -0.4563   -3.8267 O   0  0
    6.4436    3.0551    0.2137 S   0  0
    6.6046    8.0233    5.5076 Br  0  0
    3.6817    4.1172    4.3971 H   0  0
    6.1161    5.5930    1.1612 H   0  0
    4.6082    5.8404    5.8835 H   0  0
    7.0459    7.3177    2.6438 H   0  0
   -3.1005    1.3572   -0.2572 H   0  0
   -4.5484    0.7538    0.5221 H   0  0
   -0.2745   -2.6524   -2.0180 H   0  0
    0.3366   -2.7084   -0.3970 H   0  0
   -0.9171    1.3717    2.4011 H   0  0
   -0.0285    2.4043    1.3392 H   0  0
   -4.4387   -1.3689   -0.6466 H   0  0
   -4.4495   -0.0396   -1.7951 H   0  0
    1.7430   -1.3152   -1.7564 H   0  0
    0.4077   -0.3462   -2.2950 H   0  0
   -2.6823    0.4619    2.0396 H   0  0
   -3.3467   -1.0702    1.5634 H   0  0
    1.4268    1.9307    3.1125 H   0  0
    1.0272    0.2267    3.1481 H   0  0
    1.7513   -1.3066    1.3028 H   0  0
    2.9689   -0.7944    0.1582 H   0  0
   -1.9966   -2.5501   -0.2119 H   0  0
   -0.8707    1.1057   -0.2402 H   0  0
    0.9750    2.2147   -0.8890 H   0  0
    2.2469    2.8334    0.8946 H   0  0
   -3.3502   -3.0476   -2.0239 H   0  0
   -2.0619   -2.5692   -3.1458 H   0  0
   -3.6833   -1.8668   -3.3055 H   0  0
    4.4966    0.2693    1.8412 H   0  0
    3.4270   -0.3560    3.1110 H   0  0
    3.8379    1.3695    3.0674 H   0  0
    0.0790   -2.0456    1.6564 H   0  0
   -1.6126   -2.4447    2.0122 H   0  0
   -0.8457   -1.0510    2.7980 H   0  0
   -0.7210   -1.0609   -6.1446 H   0  0
   -2.3715   -0.4694   -6.4511 H   0  0
   -0.9932    0.5262   -6.9028 H   0  0
    1.8657    1.0460   -2.8341 H   0  0
    3.3363    0.6339   -1.9146 H   0  0
   -2.0282    1.3632   -4.7896 H   0  0
   -0.3759    0.7707   -4.4777 H   0  0
    3.3495    3.4807    2.0652 H   0  0
    4.3775    1.5816   -0.6051 H   0  0
    3.5611    2.5597   -3.1389 H   0  0
  1  3  1  0
  1  5  2  0
  2  4  2  0
  2  5  1  0
  3  6  2  0
  4  6  1  0
  5 31  1  0
  6 37  1  0
  7 21  1  6
  7 33  2  0
  7 35  1  0
  8 31  1  0
  8 32  1  0
  8 36  2  0
  9 12  1  0
  9 14  1  0
 10 13  1  0
 10 17  1  0
 11 15  1  0
 11 18  1  0
 12 21  1  0
 13 22  1  1
 14 24  1  0
 15 23  1  0
 16 22  1  0
 16 23  1  0
 17 21  1  0
 17 24  1  0
 18 22  1  0
 18 24  1  0
 19 20  1  0
 19 22  1  0
 19 29  1  0
 20 23  1  0
 20 32  1  0
 21 25  1  0
 23 26  1  1
 24 27  1  6
 28 30  1  0
 29 34  1  0
 30 35  1  0
  1 38  1  0
  2 39  1  0
  3 40  1  0
  4 41  1  0
  9 42  1  0
  9 43  1  0
 10 44  1  0
 10 45  1  0
 11 46  1  0
 11 47  1  0
 12 48  1  0
 12 49  1  0
 13 50  1  0
 13 51  1  0
 14 52  1  0
 14 53  1  0
 15 54  1  0
 15 55  1  0
 16 56  1  0
 16 57  1  0
 17 58  1  1
 18 59  1  1
 19 60  1  6
 20 61  1  1
 25 62  1  0
 25 63  1  0
 25 64  1  0
 26 65  1  0
 26 66  1  0
 26 67  1  0
 27 68  1  0
 27 69  1  0
 27 70  1  0
 28 71  1  0
 28 72  1  0
 28 73  1  0
 29 74  1  0
 29 75  1  0
 30 76  1  0
 30 77  1  0
 31 78  1  0
 32 79  1  0
 34 80  1  0
M  END
> <Name>
Iq

> <pIC50_JEKO-1>
-0.828

> <original_article_set>
test

$$$$
Ii
  SciTegic08162113593D

 80 84  0  0  1  0            999 V2000
   -0.8894    7.5213    6.2683 C   0  0
    0.2874    8.2683    6.2172 C   0  0
   -1.1384    6.5453    5.3033 C   0  0
    1.2152    8.0394    5.2011 C   0  0
   -0.2106    6.3164    4.2873 C   0  0
    0.9662    7.0635    4.2361 C   0  0
    0.9299   -2.8829   -3.3453 C   0  0
   -1.6444    4.8939    2.7064 C   0  0
   -1.7766   -3.1398   -1.5147 C   0  0
    1.6551   -0.5228   -1.3185 C   0  0
   -1.7523    0.5433    1.2798 C   0  0
   -0.4340   -3.8570   -1.5420 C   0  0
    1.2553    0.9454   -1.2311 C   0  0
   -1.8523   -2.0483   -0.4434 C   0  0
   -1.0199    1.0521    2.5242 C   0  0
    1.1373    1.3203    1.2870 C   0  0
    0.4122   -1.4218   -1.4206 C   0  0  1  0  0  0
   -0.8490    0.2595    0.0531 C   0  0  1  0  0  0
   -0.2380    2.7488   -0.0918 C   0  0  2  0  0  0
   -0.2403    3.2413    1.3815 C   0  0  2  0  0  0
    0.7386   -2.8946   -1.8413 C   0  0  2  0  0  0
    0.3504    1.2771   -0.0352 C   0  0  2  0  0  0
    0.1501    2.0143    2.2313 C   0  0  1  0  0  0
   -0.5115   -1.2809   -0.1656 C   0  0  1  0  0  0
    2.0359   -3.4728   -1.2518 C   0  0
    0.8223    2.4223    3.5450 C   0  0
    0.1247   -1.9234    1.0890 C   0  0
   -1.5072   -1.8907   -5.8880 C   0  0
    0.5344    3.7480   -0.9605 C   0  0
   -0.1720   -2.3876   -5.3762 C   0  0
   -0.4665    5.3228    3.3073 N   0  0
   -1.4722    3.8718    1.7710 N   0  0
    1.9642   -3.2171   -3.9071 O   0  0
   -0.1139    5.0014   -0.8775 O   0  0
   -0.2140   -2.4485   -3.9470 O   0  0
    1.8653    6.8522    3.2642 F   0  0
   -3.2037    5.4774    2.9301 S   0  0
   -1.6119    7.7005    7.0591 H   0  0
    0.4812    9.0286    6.9682 H   0  0
   -2.0592    5.9696    5.3533 H   0  0
    2.1312    8.6210    5.1613 H   0  0
   -1.9536   -2.6807   -2.4984 H   0  0
   -2.5873   -3.8690   -1.3866 H   0  0
    2.2882   -0.6428   -2.2099 H   0  0
    2.2915   -0.7958   -0.4666 H   0  0
   -2.3642   -0.3183    1.5540 H   0  0
   -2.4782    1.3122    0.9873 H   0  0
   -0.2752   -4.3701   -0.5940 H   0  0
   -0.4795   -4.6303   -2.3110 H   0  0
    2.1678    1.5510   -1.2069 H   0  0
    0.7343    1.2015   -2.1612 H   0  0
   -2.6265   -1.3246   -0.7485 H   0  0
   -2.2282   -2.5128    0.4805 H   0  0
   -1.7491    1.5288    3.1911 H   0  0
   -0.6358    0.1925    3.0860 H   0  0
    1.4502    0.3480    1.6629 H   0  0
    2.0502    1.9208    1.1751 H   0  0
   -0.1707   -1.0302   -2.2583 H   0  0
   -1.4876    0.5012   -0.8146 H   0  0
   -1.2601    2.7203   -0.4907 H   0  0
    0.5297    4.0207    1.5072 H   0  0
    1.9583   -3.5064   -0.1686 H   0  0
    2.8748   -2.8431   -1.5351 H   0  0
    2.1917   -4.4776   -1.6349 H   0  0
    1.6468    3.1005    3.3381 H   0  0
    1.2022    1.5379    4.0508 H   0  0
    0.0987    2.9206    4.1859 H   0  0
    1.0555   -1.4161    1.3102 H   0  0
    0.3124   -2.9713    0.8905 H   0  0
   -0.5599   -1.8210    1.9219 H   0  0
   -2.3147   -2.5657   -5.5911 H   0  0
   -1.7217   -0.8900   -5.4985 H   0  0
   -1.4966   -1.8115   -6.9801 H   0  0
    0.5383    3.4067   -1.9931 H   0  0
    1.5539    3.8391   -0.5932 H   0  0
    0.6311   -1.7080   -5.6766 H   0  0
    0.0404   -3.3877   -5.7656 H   0  0
    0.3806    4.8977    2.9403 H   0  0
   -2.3281    3.5319    1.3306 H   0  0
    0.3883    5.6225   -1.4334 H   0  0
  1  2  2  0
  1  3  1  0
  2  4  1  0
  3  5  2  0
  4  6  2  0
  5  6  1  0
  5 31  1  0
  6 36  1  0
  7 21  1  0
  7 33  2  0
  7 35  1  0
  8 31  1  0
  8 32  1  0
  8 37  2  0
  9 12  1  0
  9 14  1  0
 10 13  1  0
 10 17  1  0
 11 15  1  0
 11 18  1  0
 12 21  1  0
 13 22  1  6
 14 24  1  0
 15 23  1  0
 16 22  1  0
 16 23  1  0
 17 21  1  0
 17 24  1  0
 18 22  1  0
 18 24  1  0
 19 20  1  0
 19 22  1  0
 19 29  1  0
 20 23  1  0
 20 32  1  0
 21 25  1  1
 23 26  1  1
 24 27  1  6
 28 30  1  0
 29 34  1  0
 30 35  1  0
  1 38  1  0
  2 39  1  0
  3 40  1  0
  4 41  1  0
  9 42  1  0
  9 43  1  0
 10 44  1  0
 10 45  1  0
 11 46  1  0
 11 47  1  0
 12 48  1  0
 12 49  1  0
 13 50  1  0
 13 51  1  0
 14 52  1  0
 14 53  1  0
 15 54  1  0
 15 55  1  0
 16 56  1  0
 16 57  1  0
 17 58  1  1
 18 59  1  1
 19 60  1  6
 20 61  1  6
 25 62  1  0
 25 63  1  0
 25 64  1  0
 26 65  1  0
 26 66  1  0
 26 67  1  0
 27 68  1  0
 27 69  1  0
 27 70  1  0
 28 71  1  0
 28 72  1  0
 28 73  1  0
 29 74  1  0
 29 75  1  0
 30 76  1  0
 30 77  1  0
 31 78  1  0
 32 79  1  0
 34 80  1  0
M  END
> <Name>
Ii

> <pIC50_JEKO-1>
-1.553

> <original_article_set>
training

$$$$
It
  SciTegic08162113593D

 84 88  0  0  1  0            999 V2000
    0.9669    7.0622    4.2335 C   0  0
   -1.1366    6.5474    5.3045 C   0  0
    1.2184    8.0390    5.1969 C   0  0
   -0.8852    7.5242    6.2680 C   0  0
   -0.2106    6.3164    4.2873 C   0  0
    0.2924    8.2700    6.2141 C   0  0
    0.9299   -2.8829   -3.3453 C   0  0
   -1.6444    4.8939    2.7064 C   0  0
   -1.7766   -3.1398   -1.5147 C   0  0
    1.6551   -0.5228   -1.3185 C   0  0
   -1.7523    0.5433    1.2798 C   0  0
   -0.4340   -3.8570   -1.5420 C   0  0
    1.2553    0.9454   -1.2311 C   0  0
   -1.8523   -2.0483   -0.4434 C   0  0
   -1.0199    1.0521    2.5242 C   0  0
    1.1373    1.3203    1.2870 C   0  0
    0.4122   -1.4218   -1.4206 C   0  0  1  0  0  0
   -0.8490    0.2595    0.0531 C   0  0  1  0  0  0
   -0.2380    2.7488   -0.0918 C   0  0  2  0  0  0
   -0.2403    3.2413    1.3815 C   0  0  2  0  0  0
    0.7386   -2.8946   -1.8413 C   0  0  2  0  0  0
    0.3504    1.2771   -0.0352 C   0  0  2  0  0  0
    0.1501    2.0143    2.2313 C   0  0  1  0  0  0
   -0.5115   -1.2809   -0.1656 C   0  0  1  0  0  0
    2.0359   -3.4728   -1.2518 C   0  0
    0.8223    2.4223    3.5450 C   0  0
    0.1247   -1.9234    1.0890 C   0  0
   -1.5072   -1.8907   -5.8880 C   0  0
   -0.4514    9.4072    8.1659 C   0  0
    0.5344    3.7480   -0.9605 C   0  0
   -0.1720   -2.3876   -5.3762 C   0  0
   -0.4665    5.3228    3.3073 N   0  0
   -1.4722    3.8718    1.7710 N   0  0
    1.9642   -3.2171   -3.9071 O   0  0
   -0.1139    5.0014   -0.8775 O   0  0
    0.5377    9.2232    7.1543 O   0  0
   -0.2140   -2.4485   -3.9470 O   0  0
   -3.2037    5.4774    2.9301 S   0  0
    1.6956    6.8906    3.4453 H   0  0
   -2.0577    5.9723    5.3564 H   0  0
    2.1375    8.6167    5.1497 H   0  0
   -1.6104    7.6996    7.0579 H   0  0
   -1.9536   -2.6807   -2.4984 H   0  0
   -2.5873   -3.8690   -1.3866 H   0  0
    2.2882   -0.6428   -2.2099 H   0  0
    2.2915   -0.7958   -0.4666 H   0  0
   -2.3642   -0.3183    1.5540 H   0  0
   -2.4782    1.3122    0.9873 H   0  0
   -0.2752   -4.3701   -0.5940 H   0  0
   -0.4795   -4.6303   -2.3110 H   0  0
    2.1678    1.5510   -1.2069 H   0  0
    0.7343    1.2015   -2.1612 H   0  0
   -2.6265   -1.3246   -0.7485 H   0  0
   -2.2282   -2.5128    0.4805 H   0  0
   -1.7491    1.5288    3.1911 H   0  0
   -0.6358    0.1925    3.0860 H   0  0
    1.4502    0.3480    1.6629 H   0  0
    2.0502    1.9208    1.1751 H   0  0
   -0.1707   -1.0302   -2.2583 H   0  0
   -1.4876    0.5012   -0.8146 H   0  0
   -1.2601    2.7203   -0.4907 H   0  0
    0.5297    4.0207    1.5072 H   0  0
    1.9583   -3.5064   -0.1686 H   0  0
    2.8748   -2.8431   -1.5351 H   0  0
    2.1917   -4.4776   -1.6349 H   0  0
    1.6468    3.1005    3.3381 H   0  0
    1.2022    1.5379    4.0508 H   0  0
    0.0987    2.9206    4.1859 H   0  0
    1.0555   -1.4161    1.3102 H   0  0
    0.3124   -2.9713    0.8905 H   0  0
   -0.5599   -1.8210    1.9219 H   0  0
   -2.3147   -2.5657   -5.5911 H   0  0
   -1.7217   -0.8900   -5.4985 H   0  0
   -1.4966   -1.8115   -6.9801 H   0  0
   -0.1311   10.1964    8.8505 H   0  0
   -0.5933    8.4714    8.7125 H   0  0
   -1.3930    9.6974    7.6939 H   0  0
    0.5383    3.4067   -1.9931 H   0  0
    1.5539    3.8391   -0.5932 H   0  0
    0.6311   -1.7080   -5.6766 H   0  0
    0.0404   -3.3877   -5.7656 H   0  0
    0.3806    4.8977    2.9403 H   0  0
   -2.3281    3.5319    1.3306 H   0  0
    0.3883    5.6225   -1.4334 H   0  0
  1  3  1  0
  1  5  2  0
  2  4  2  0
  2  5  1  0
  3  6  2  0
  4  6  1  0
  5 32  1  0
  6 36  1  0
  7 21  1  0
  7 34  2  0
  7 37  1  0
  8 32  1  0
  8 33  1  0
  8 38  2  0
  9 12  1  0
  9 14  1  0
 10 13  1  0
 10 17  1  0
 11 15  1  0
 11 18  1  0
 12 21  1  0
 13 22  1  1
 14 24  1  0
 15 23  1  0
 16 22  1  0
 16 23  1  0
 17 21  1  0
 17 24  1  0
 18 22  1  0
 18 24  1  0
 19 20  1  0
 19 22  1  0
 19 30  1  0
 20 23  1  0
 20 33  1  0
 21 25  1  1
 23 26  1  1
 24 27  1  6
 28 31  1  0
 29 36  1  0
 30 35  1  0
 31 37  1  0
  1 39  1  0
  2 40  1  0
  3 41  1  0
  4 42  1  0
  9 43  1  0
  9 44  1  0
 10 45  1  0
 10 46  1  0
 11 47  1  0
 11 48  1  0
 12 49  1  0
 12 50  1  0
 13 51  1  0
 13 52  1  0
 14 53  1  0
 14 54  1  0
 15 55  1  0
 15 56  1  0
 16 57  1  0
 16 58  1  0
 17 59  1  1
 18 60  1  1
 19 61  1  6
 20 62  1  6
 25 63  1  0
 25 64  1  0
 25 65  1  0
 26 66  1  0
 26 67  1  0
 26 68  1  0
 27 69  1  0
 27 70  1  0
 27 71  1  0
 28 72  1  0
 28 73  1  0
 28 74  1  0
 29 75  1  0
 29 76  1  0
 29 77  1  0
 30 78  1  0
 30 79  1  0
 31 80  1  0
 31 81  1  0
 32 82  1  0
 33 83  1  0
 35 84  1  0
M  END
> <Name>
It

> <pIC50_JEKO-1>
-1.605

> <original_article_set>
training

$$$$
Ic
  SciTegic08162113593D

 76 79  0  0  1  0            999 V2000
   -0.0020   -3.0010    1.1331 C   0  0
   -3.8089    2.3814   -3.1828 C   0  0
   -2.7429   -2.1760   -4.7004 C   0  0
   -0.4285   -0.8921    3.4032 C   0  0
    2.0752   -1.1610   -0.2152 C   0  0
   -1.3014    1.6139    0.4719 C   0  0
    0.5330   -2.0673    3.3375 C   0  0
    0.9251   -1.1785   -1.2141 C   0  0
    0.2585    0.3685    2.9142 C   0  0
   -1.0035    2.7030   -0.5587 C   0  0
    0.5424    1.2435   -1.8531 C   0  0
    1.6429   -0.9987    1.2583 C   0  0  2  0  0  0
   -0.4021    0.3509    0.3864 C   0  0  1  0  0  0
   -1.3828   -0.1991   -1.9252 C   0  0  2  0  0  0
   -1.7245    1.1910   -2.5343 C   0  0  2  0  0  0
    1.0885   -2.3178    1.9215 C   0  0  2  0  0  0
   -0.0339    0.0174   -1.1164 C   0  0  2  0  0  0
   -0.6725    2.1662   -1.9639 C   0  0  1  0  0  0
    0.7800    0.3050    1.4425 C   0  0  1  0  0  0
   -5.2088    2.6622   -2.7474 C   0  0
   -4.1345   -2.1156   -5.2533 C   0  0
    2.2208   -3.3643    2.0556 C   0  0
   -0.4042    3.3366   -2.9135 C   0  0
    1.7136    1.5417    1.3258 C   0  0
    0.1325   -6.2964   -0.4516 C   0  0
   -1.3348   -1.2422   -3.0483 C   0  0
   -0.5025   -4.9800   -0.0573 C   0  0
   -3.0896    1.5843   -2.3072 N   0  0
   -1.1043   -2.5130    0.9233 O   0  0
   -3.3993    2.8488   -4.2390 O   0  0
   -1.8683   -2.9187   -5.1255 O   0  0
    0.4380   -4.2193    0.7075 O   0  0
   -2.6059   -1.2878   -3.6648 O   0  0
   -1.3416   -1.0891    2.8338 H   0  0
   -0.7427   -0.7488    4.4442 H   0  0
    2.6686   -2.0718   -0.3451 H   0  0
    2.7579   -0.3468   -0.4855 H   0  0
   -1.2969    2.0682    1.4648 H   0  0
   -2.3416    1.2921    0.3300 H   0  0
    1.3643   -1.8767    4.0300 H   0  0
    0.0190   -2.9615    3.7146 H   0  0
    1.3579   -1.2347   -2.2214 H   0  0
    0.3669   -2.1081   -1.0965 H   0  0
   -0.4102    1.2195    3.0701 H   0  0
    1.1076    0.5536    3.5883 H   0  0
   -1.8596    3.3882   -0.6031 H   0  0
   -0.1620    3.3093   -0.2012 H   0  0
    1.3805    1.7261   -1.3558 H   0  0
    0.9008    0.9615   -2.8530 H   0  0
    2.5784   -0.8045    1.8075 H   0  0
   -1.0622   -0.4676    0.6988 H   0  0
   -2.1755   -0.5241   -1.2390 H   0  0
   -1.6194    1.1478   -3.6263 H   0  0
   -5.2829    3.5727   -2.1312 H   0  0
   -5.8881    2.8307   -3.5985 H   0  0
   -5.6848    1.8684   -2.1498 H   0  0
   -4.7741   -2.8281   -4.7267 H   0  0
   -4.1176   -2.3313   -6.3246 H   0  0
   -4.5392   -1.1098   -5.1076 H   0  0
    3.0358   -2.9263    2.6166 H   0  0
    2.5575   -3.6426    1.0657 H   0  0
    1.8346   -4.2313    2.5752 H   0  0
   -0.1706    2.9565   -3.9053 H   0  0
    0.4360    3.9207   -2.5454 H   0  0
   -1.2859    3.9709   -2.9700 H   0  0
    2.1200    1.5709    0.3256 H   0  0
    2.5066    1.4419    2.0522 H   0  0
    1.1315    2.4300    1.5224 H   0  0
    1.0256   -6.1318   -1.0608 H   0  0
    0.4118   -6.8718    0.4371 H   0  0
   -0.5741   -6.9108   -1.0195 H   0  0
   -1.0963   -2.2171   -2.6298 H   0  0
   -0.5836   -0.9553   -3.7801 H   0  0
   -1.3951   -5.1517    0.5517 H   0  0
   -0.7802   -4.4060   -0.9464 H   0  0
   -3.5510    1.2601   -1.4589 H   0  0
  1 16  1  0
  1 29  2  0
  1 32  1  0
  2 20  1  0
  2 28  1  0
  2 30  2  0
  3 21  1  0
  3 31  2  0
  3 33  1  0
  4  7  1  0
  4  9  1  0
  5  8  1  0
  5 12  1  0
  6 10  1  0
  6 13  1  0
  7 16  1  0
  8 17  1  6
  9 19  1  0
 10 18  1  0
 11 17  1  0
 11 18  1  0
 12 16  1  0
 12 19  1  0
 13 17  1  0
 13 19  1  0
 14 15  1  0
 14 17  1  0
 14 26  1  0
 15 18  1  0
 15 28  1  0
 16 22  1  6
 18 23  1  1
 19 24  1  6
 25 27  1  0
 26 33  1  0
 27 32  1  0
  4 34  1  0
  4 35  1  0
  5 36  1  0
  5 37  1  0
  6 38  1  0
  6 39  1  0
  7 40  1  0
  7 41  1  0
  8 42  1  0
  8 43  1  0
  9 44  1  0
  9 45  1  0
 10 46  1  0
 10 47  1  0
 11 48  1  0
 11 49  1  0
 12 50  1  1
 13 51  1  1
 14 52  1  6
 15 53  1  6
 20 54  1  0
 20 55  1  0
 20 56  1  0
 21 57  1  0
 21 58  1  0
 21 59  1  0
 22 60  1  0
 22 61  1  0
 22 62  1  0
 23 63  1  0
 23 64  1  0
 23 65  1  0
 24 66  1  0
 24 67  1  0
 24 68  1  0
 25 69  1  0
 25 70  1  0
 25 71  1  0
 26 72  1  0
 26 73  1  0
 27 74  1  0
 27 75  1  0
 28 76  1  0
M  END
> <Name>
Ic

> <pIC50_JEKO-1>
-1.783

> <original_article_set>
test

$$$$
Ip
  SciTegic08162113593D

 80 84  0  0  1  0            999 V2000
    6.3107    6.6208    3.0371 C   0  0
    5.7830    5.6426    2.1943 C   0  0
    5.8924    6.6965    4.3656 C   0  0
    4.4184    4.8158    4.0086 C   0  0
    4.8369    4.7401    2.6801 C   0  0
    4.9462    5.7941    4.8513 C   0  0
   -1.9790   -0.0004   -2.5441 C   0  0
    4.8630    3.0163    0.7811 C   0  0
   -3.5840    0.4439    0.1017 C   0  0
   -0.1547   -2.0428   -1.1164 C   0  0
   -0.0828    1.3670    1.6967 C   0  0
   -3.8349   -0.5363   -1.0325 C   0  0
    0.7872   -0.8870   -1.4275 C   0  0
   -2.7593   -0.2196    1.1879 C   0  0
    1.2019    1.0700    2.4692 C   0  0
    2.0778   -0.4578    0.7060 C   0  0
   -1.5305   -1.6151   -0.5628 C   0  0  2  0  0  0
   -0.3389    0.4568    0.4665 C   0  0  1  0  0  0
    1.7327    1.4385   -0.7178 C   0  0  2  0  0  0
    2.6084    1.8736    0.5068 C   0  0  1  0  0  0
   -2.5366   -1.0859   -1.6560 C   0  0  2  0  0  0
    1.0177    0.0936   -0.2663 C   0  0  2  0  0  0
    2.4152    0.7581    1.5681 C   0  0  1  0  0  0
   -1.3563   -0.7325    0.7284 C   0  0  1  0  0  0
   -2.9407   -2.2354   -2.6101 C   0  0
    3.6320    0.4909    2.4614 C   0  0
   -0.8948   -1.6458    1.8978 C   0  0
   -1.3619   -0.1748   -6.1465 C   0  0
    2.5284    1.3510   -2.0292 C   0  0
   -1.3855    0.4778   -4.7808 C   0  0
    4.3005    3.7450    1.8228 N   0  0
    3.9912    2.1153    0.1723 N   0  0
   -1.6553    1.1108   -2.1471 O   0  0
    3.0604    2.6297   -2.3070 O   0  0
   -1.9006   -0.4563   -3.8267 O   0  0
    6.4436    3.0551    0.2137 S   0  0
    4.3786    5.8989    6.6511 Br  0  0
    7.0473    7.3236    2.6591 H   0  0
    6.1176    5.5933    1.1614 H   0  0
    6.3138    7.4647    5.0088 H   0  0
    3.6806    4.1092    4.3822 H   0  0
   -3.1005    1.3572   -0.2572 H   0  0
   -4.5484    0.7538    0.5221 H   0  0
   -0.2745   -2.6524   -2.0180 H   0  0
    0.3366   -2.7084   -0.3970 H   0  0
   -0.9171    1.3717    2.4011 H   0  0
   -0.0285    2.4043    1.3392 H   0  0
   -4.4387   -1.3689   -0.6466 H   0  0
   -4.4495   -0.0396   -1.7951 H   0  0
    1.7430   -1.3152   -1.7564 H   0  0
    0.4077   -0.3462   -2.2950 H   0  0
   -2.6823    0.4619    2.0396 H   0  0
   -3.3467   -1.0702    1.5634 H   0  0
    1.4268    1.9307    3.1125 H   0  0
    1.0272    0.2267    3.1481 H   0  0
    1.7513   -1.3066    1.3028 H   0  0
    2.9689   -0.7944    0.1582 H   0  0
   -1.9966   -2.5501   -0.2119 H   0  0
   -0.8707    1.1057   -0.2402 H   0  0
    0.9750    2.2147   -0.8890 H   0  0
    2.2469    2.8334    0.8946 H   0  0
   -3.3502   -3.0476   -2.0239 H   0  0
   -2.0619   -2.5692   -3.1458 H   0  0
   -3.6833   -1.8668   -3.3055 H   0  0
    4.4966    0.2693    1.8412 H   0  0
    3.4270   -0.3560    3.1110 H   0  0
    3.8379    1.3695    3.0674 H   0  0
    0.0790   -2.0456    1.6564 H   0  0
   -1.6126   -2.4447    2.0122 H   0  0
   -0.8457   -1.0510    2.7980 H   0  0
   -0.7210   -1.0609   -6.1446 H   0  0
   -2.3715   -0.4694   -6.4511 H   0  0
   -0.9932    0.5262   -6.9028 H   0  0
    1.8657    1.0460   -2.8341 H   0  0
    3.3363    0.6339   -1.9146 H   0  0
   -2.0282    1.3632   -4.7896 H   0  0
   -0.3759    0.7707   -4.4777 H   0  0
    3.3495    3.4807    2.0652 H   0  0
    4.3775    1.5816   -0.6051 H   0  0
    3.5611    2.5597   -3.1389 H   0  0
  1  2  1  0
  1  3  2  0
  2  5  2  0
  3  6  1  0
  4  5  1  0
  4  6  2  0
  5 31  1  0
  6 37  1  0
  7 21  1  6
  7 33  2  0
  7 35  1  0
  8 31  1  0
  8 32  1  0
  8 36  2  0
  9 12  1  0
  9 14  1  0
 10 13  1  0
 10 17  1  0
 11 15  1  0
 11 18  1  0
 12 21  1  0
 13 22  1  1
 14 24  1  0
 15 23  1  0
 16 22  1  0
 16 23  1  0
 17 21  1  0
 17 24  1  0
 18 22  1  0
 18 24  1  0
 19 20  1  0
 19 22  1  0
 19 29  1  0
 20 23  1  0
 20 32  1  0
 21 25  1  0
 23 26  1  6
 24 27  1  6
 28 30  1  0
 29 34  1  0
 30 35  1  0
  1 38  1  0
  2 39  1  0
  3 40  1  0
  4 41  1  0
  9 42  1  0
  9 43  1  0
 10 44  1  0
 10 45  1  0
 11 46  1  0
 11 47  1  0
 12 48  1  0
 12 49  1  0
 13 50  1  0
 13 51  1  0
 14 52  1  0
 14 53  1  0
 15 54  1  0
 15 55  1  0
 16 56  1  0
 16 57  1  0
 17 58  1  1
 18 59  1  1
 19 60  1  6
 20 61  1  1
 25 62  1  0
 25 63  1  0
 25 64  1  0
 26 65  1  0
 26 66  1  0
 26 67  1  0
 27 68  1  0
 27 69  1  0
 27 70  1  0
 28 71  1  0
 28 72  1  0
 28 73  1  0
 29 74  1  0
 29 75  1  0
 30 76  1  0
 30 77  1  0
 31 78  1  0
 32 79  1  0
 34 80  1  0
M  END
> <Name>
Ip

> <pIC50_JEKO-1>
-1.436

> <original_article_set>
training

$$$$
IIa
  SciTegic08162113593D

 63 66  0  0  1  0            999 V2000
    0.0726    3.2470    0.0577 C   0  0
   -1.4295    2.2759    2.7620 C   0  0
   -1.2898    0.8333   -1.4467 C   0  0
    1.7965    0.0593    0.7082 C   0  0
   -1.8614    3.2135    1.6335 C   0  0
   -1.2346   -0.6798   -1.5948 C   0  0
   -0.4341    1.2082    2.3253 C   0  0
    2.9701   -0.7902   -0.0832 C   0  0
    0.0660   -2.8575   -1.0887 C   0  0
    1.2374   -0.9940   -1.4911 C   0  0
   -1.5603    1.2857   -0.0014 C   0  0  2  0  0  0
    0.2390   -0.5880    0.5912 C   0  0  2  0  0  0
    1.6343   -3.1975   -1.2756 C   0  0  2  0  0  0
   -1.3669    2.8196    0.2233 C   0  0  2  0  0  0
   -0.0536   -1.2814   -0.8408 C   0  0  1  0  0  0
    2.1756   -1.9540   -0.5999 C   0  0  3  0  0  0
   -0.9123    0.3708    1.1054 C   0  0  1  0  0  0
   -2.1541    3.6533   -0.8077 C   0  0
    2.1237   -2.6850    0.8720 C   0  0
   -2.0441   -0.5705    1.6472 C   0  0
    2.1820    4.9500    2.5152 C   0  0
    1.8594    4.3078    1.1828 C   0  0
    2.0256   -3.3687   -2.6957 N   0  3
    0.7286    3.0657   -0.9592 O   0  0
    0.5033    3.8511    1.2017 O   0  0
   -0.9869    2.8682    3.5726 H   0  0
   -2.3170    1.8045    3.1998 H   0  0
   -0.3677    1.2747   -1.8342 H   0  0
   -2.0928    1.2052   -2.0956 H   0  0
    2.0730    0.1249    1.7673 H   0  0
    1.7981    1.0819    0.3163 H   0  0
   -2.9593    3.2547    1.6387 H   0  0
   -1.5324    4.2324    1.8784 H   0  0
   -2.1759   -1.1244   -1.2551 H   0  0
   -1.1616   -0.9206   -2.6635 H   0  0
    0.5080    1.7196    2.1108 H   0  0
   -0.2191    0.5484    3.1759 H   0  0
    3.4282   -0.1712   -0.8662 H   0  0
    3.7933   -1.0328    0.6008 H   0  0
   -0.4818   -3.1664   -1.9880 H   0  0
   -0.3764   -3.4038   -0.2491 H   0  0
    1.2526   -1.2044   -2.5667 H   0  0
    1.4737    0.0781   -1.5402 H   0  0
   -2.6494    1.1501    0.1021 H   0  0
    0.2237   -1.3965    1.3284 H   0  0
    1.8718   -4.1694   -0.8279 H   0  0
   -3.2050    3.3956   -0.7438 H   0  0
   -1.7808    3.4328   -1.8011 H   0  0
   -2.0194    4.7064   -0.5891 H   0  0
    1.5745   -3.5683    0.6957 H   0  0
    1.6337   -1.9811    1.4860 H   0  0
    3.1391   -2.8422    1.1114 H   0  0
   -2.3975   -1.1656    0.8240 H   0  0
   -2.8280    0.0521    2.0403 H   0  0
   -1.6163   -1.1881    2.4168 H   0  0
    1.5282    5.8060    2.7042 H   0  0
    2.0643    4.2284    3.3302 H   0  0
    3.2231    5.2890    2.5381 H   0  0
    2.5168    3.4526    0.9999 H   0  0
    1.9768    5.0304    0.3698 H   0  0
    2.8635   -3.9546   -2.7781 H   0  0
    2.2300   -2.4627   -3.1318 H   0  0
    1.2741   -3.8151   -3.2328 H   0  0
  1 14  1  0
  1 24  2  0
  1 25  1  0
  2  5  1  0
  2  7  1  0
  3  6  1  0
  3 11  1  0
  4  8  1  0
  4 12  1  0
  5 14  1  0
  6 15  1  0
  7 17  1  0
  8 16  1  0
  9 13  1  0
  9 15  1  0
 10 15  1  1
 10 16  1  0
 11 14  1  0
 11 17  1  0
 12 15  1  0
 12 17  1  0
 13 16  1  0
 13 23  1  0
 14 18  1  1
 16 19  1  6
 17 20  1  6
 21 22  1  0
 22 25  1  0
  2 26  1  0
  2 27  1  0
  3 28  1  0
  3 29  1  0
  4 30  1  0
  4 31  1  0
  5 32  1  0
  5 33  1  0
  6 34  1  0
  6 35  1  0
  7 36  1  0
  7 37  1  0
  8 38  1  0
  8 39  1  0
  9 40  1  0
  9 41  1  0
 10 42  1  0
 10 43  1  0
 11 44  1  1
 12 45  1  1
 13 46  1  6
 18 47  1  0
 18 48  1  0
 18 49  1  0
 19 50  1  0
 19 51  1  0
 19 52  1  0
 20 53  1  0
 20 54  1  0
 20 55  1  0
 21 56  1  0
 21 57  1  0
 21 58  1  0
 22 59  1  0
 22 60  1  0
 23 61  1  0
 23 62  1  0
 23 63  1  0
M  CHG  1  23   1
M  END
> <Name>
IIa

> <pIC50_JEKO-1>
-0.342

> <original_article_set>
training

$$$$
IIIb
  SciTegic08162113593D

 65 67  0  0  1  0            999 V2000
   -0.3686    5.0466   -2.1801 C   0  0
   -2.6496   -1.3854   -2.2432 C   0  0
   -2.4326   -0.4168   -1.3471 C   0  0
    0.3812    0.7543    3.8577 C   0  0
    1.6308   -2.4409    2.1851 C   0  0
   -1.3133    0.7520    1.2979 C   0  0
    1.4151    0.1368   -1.3882 C   0  0
   -1.3021    1.3908   -0.0929 C   0  0
    1.4684   -1.3105    3.1937 C   0  0
    1.4780   -1.9368    0.7480 C   0  0
    1.4094    0.6908   -2.8108 C   0  0
   -1.0604    1.1106   -2.6257 C   0  0
    0.0903   -0.5697   -1.0038 C   0  0  2  0  0  0
   -0.0343   -0.0725    1.5375 C   0  0  1  0  0  0
   -1.1419    0.3796   -1.2513 C   0  0  2  0  0  0
    0.1650   -0.4984    3.0304 C   0  0  2  0  0  0
    0.1277   -1.2105    0.4703 C   0  0  2  0  0  0
    0.2945    1.7120   -3.0624 C   0  0  2  0  0  0
   -1.0246   -1.2317    3.6658 C   0  0
   -0.9847   -2.2941    0.5476 C   0  0
    0.2252    2.0036   -4.5801 C   0  0
    2.9957    3.2780    3.4276 C   0  0
    0.6085    3.0515   -2.3718 C   0  0
    1.7812    2.6458    4.0733 C   0  0
   -0.4864    3.9695   -2.6443 N   0  0
   -0.3227    1.0806    4.8038 O   0  0
    1.4620    1.4349    3.3805 O   0  0
   -0.2247    6.5065   -1.5599 S   0  0
   -3.5946   -1.9172   -2.2593 H   0  0
   -1.8958   -1.6642   -2.9716 H   0  0
   -3.2188   -0.1740   -0.6376 H   0  0
    2.6305   -2.8776    2.3011 H   0  0
    0.9286   -3.2496    2.4063 H   0  0
   -1.3846    1.5606    2.0352 H   0  0
   -2.2152    0.1468    1.4285 H   0  0
    2.2414   -0.5810   -1.3558 H   0  0
    1.6594    0.9301   -0.6760 H   0  0
   -2.2228    1.9765   -0.2177 H   0  0
   -0.4899    2.1188   -0.1016 H   0  0
    1.5402   -1.7198    4.2100 H   0  0
    2.3329   -0.6392    3.0884 H   0  0
    2.3191   -1.2554    0.5821 H   0  0
    1.6061   -2.7742    0.0511 H   0  0
    2.3880    1.1396   -3.0245 H   0  0
    1.3032   -0.1528   -3.5064 H   0  0
   -1.3423    0.3813   -3.4021 H   0  0
   -1.8348    1.8901   -2.6758 H   0  0
    0.0073   -1.4097   -1.7108 H   0  0
    0.7937    0.6267    1.3421 H   0  0
   -1.2258   -2.1430    3.1102 H   0  0
   -1.9004   -0.5899    3.6394 H   0  0
   -0.7873   -1.4798    4.6963 H   0  0
   -1.9365   -1.8205    0.3588 H   0  0
   -0.9689   -2.7298    1.5354 H   0  0
   -0.7817   -3.0459   -0.2004 H   0  0
   -0.5612    2.7245   -4.7619 H   0  0
    0.0119    1.0808   -5.1037 H   0  0
    1.1779    2.4029   -4.9030 H   0  0
    3.8585    2.6082    3.4799 H   0  0
    2.7952    3.5149    2.3775 H   0  0
    3.2496    4.2206    3.9236 H   0  0
    1.5412    3.4443   -2.7657 H   0  0
    0.7084    2.8856   -1.3031 H   0  0
    0.9219    3.3207    4.0176 H   0  0
    1.9834    2.4090    5.1221 H   0  0
  1 25  2  0
  1 28  2  0
  2  3  2  0
  3 15  1  1
  4 16  1  1
  4 26  2  0
  4 27  1  0
  5  9  1  0
  5 10  1  0
  6  8  1  0
  6 14  1  0
  7 11  1  0
  7 13  1  0
  8 15  1  0
  9 16  1  0
 10 17  1  0
 11 18  1  0
 12 15  1  0
 12 18  1  0
 13 15  1  0
 13 17  1  0
 14 16  1  0
 14 17  1  0
 16 19  1  0
 17 20  1  1
 18 21  1  1
 18 23  1  0
 22 24  1  0
 23 25  1  0
 24 27  1  0
  2 29  1  0
  2 30  1  0
  3 31  1  0
  5 32  1  0
  5 33  1  0
  6 34  1  0
  6 35  1  0
  7 36  1  0
  7 37  1  0
  8 38  1  0
  8 39  1  0
  9 40  1  0
  9 41  1  0
 10 42  1  0
 10 43  1  0
 11 44  1  0
 11 45  1  0
 12 46  1  0
 12 47  1  0
 13 48  1  1
 14 49  1  6
 19 50  1  0
 19 51  1  0
 19 52  1  0
 20 53  1  0
 20 54  1  0
 20 55  1  0
 21 56  1  0
 21 57  1  0
 21 58  1  0
 22 59  1  0
 22 60  1  0
 22 61  1  0
 23 62  1  0
 23 63  1  0
 24 64  1  0
 24 65  1  0
M  END
> <Name>
IIIb

> <pIC50_JEKO-1>
-0.735

> <original_article_set>
training

$$$$
IIe
  SciTegic08162113593D

 82 86  0  0  1  0            999 V2000
    4.5780   -6.1325    0.4612 C   0  0
    3.2684   -5.7520    0.7538 C   0  0
    5.0350   -6.1029   -0.8564 C   0  0
    2.4157   -5.3421   -0.2711 C   0  0
    4.1823   -5.6930   -1.8813 C   0  0
    2.8726   -5.3126   -1.5887 C   0  0
   -0.0416   -0.5480    4.2420 C   0  0
    2.9283   -2.7903   -3.7644 C   0  0
   -3.1160   -0.6671    1.9158 C   0  0
    0.5651   -0.9487    1.4998 C   0  0
   -0.9736    0.1945   -1.9995 C   0  0
   -2.1880   -0.9815    3.0857 C   0  0
    0.8691   -1.0437    0.0047 C   0  0
   -2.3701   -0.4474    0.5946 C   0  0
    0.0142   -0.4201   -3.0227 C   0  0
    2.6726   -0.1864   -1.0373 C   0  0
    1.4435    1.2780   -1.9531 C   0  0
   -0.3048    0.2755    1.8797 C   0  0  2  0  0  0
   -0.3264    0.7405   -0.6754 C   0  0  2  0  0  0
    2.5826   -0.6209   -2.5149 C   0  0  2  0  0  0
   -1.0303    0.0240    3.2470 C   0  0  2  0  0  0
    1.2664    0.4215   -0.5276 C   0  0  1  0  0  0
    1.4221    0.2277   -3.0423 C   0  0  1  0  0  0
   -1.2346    0.6124    0.6704 C   0  0  1  0  0  0
   -1.5220    1.3129    3.9314 C   0  0
    1.7316    0.8099   -4.4215 C   0  0
   -1.9187    2.0017    0.8422 C   0  0
    3.0816    0.9703    5.3948 C   0  0
    1.1638   -6.0297   -3.3085 C   0  0
    2.0091   -0.0958    5.3254 C   0  0
    1.9478   -4.8681   -2.7013 C   0  0  2  0  0  0
    2.4408   -2.0375   -2.6977 N   0  0
    2.6713   -4.1475   -3.7306 N   0  0
   -0.1781   -1.6286    4.7995 O   0  0
    0.9955    0.3219    4.4056 O   0  0
    3.7911   -2.1654   -5.0655 S   0  0
    5.2423   -6.4504    1.2595 H   0  0
    2.9127   -5.7739    1.7798 H   0  0
    6.0549   -6.3980   -1.0845 H   0  0
    1.3967   -5.0476   -0.0337 H   0  0
    4.5469   -5.6733   -2.9049 H   0  0
   -3.8204   -1.4987    1.7892 H   0  0
   -3.7335    0.2049    2.1547 H   0  0
    0.0953   -1.8915    1.8000 H   0  0
    1.5160   -0.8921    2.0456 H   0  0
   -1.5018    1.0278   -2.4823 H   0  0
   -1.7395   -0.5607   -1.8111 H   0  0
   -2.7801   -1.0283    4.0093 H   0  0
   -1.7927   -1.9964    2.9490 H   0  0
    1.6043   -1.8542   -0.0727 H   0  0
    0.0274   -1.5047   -0.5216 H   0  0
   -1.9726   -1.4184    0.2809 H   0  0
   -3.1104   -0.1536   -0.1600 H   0  0
    0.0765   -1.4952   -2.8251 H   0  0
   -0.4524   -0.3559   -4.0146 H   0  0
    3.1557   -0.9449   -0.4044 H   0  0
    3.4431    0.5992   -0.9298 H   0  0
    0.7290    2.0817   -2.1836 H   0  0
    2.3685    1.8824   -1.9419 H   0  0
    0.3877    1.1194    2.0170 H   0  0
   -0.3610    1.8353   -0.7724 H   0  0
    3.5299   -0.3587   -3.0022 H   0  0
   -2.2450    1.8039    3.2892 H   0  0
   -0.6768    1.9707    4.1017 H   0  0
   -1.9857    1.0589    4.8784 H   0  0
    2.7224    1.2600   -4.4167 H   0  0
    0.9947    1.5701   -4.6734 H   0  0
    1.7009    0.0199   -5.1694 H   0  0
   -1.1476    2.7540    0.8972 H   0  0
   -2.4975    1.9834    1.7523 H   0  0
   -2.5565    2.1725   -0.0108 H   0  0
    3.5419    1.1251    4.4150 H   0  0
    2.6604    1.9196    5.7415 H   0  0
    3.8608    0.6877    6.1105 H   0  0
    1.8381   -6.7843   -3.7281 H   0  0
    0.5440   -6.5149   -2.5460 H   0  0
    0.4904   -5.6972   -4.1065 H   0  0
    1.5529   -0.2457    6.3085 H   0  0
    2.4315   -1.0434    4.9781 H   0  0
    1.2220   -4.1500   -2.3002 H   0  0
    1.9304   -2.5417   -1.9715 H   0  0
    3.0260   -4.6967   -4.5077 H   0  0
  1  2  2  0
  1  3  1  0
  2  4  1  0
  3  5  2  0
  4  6  2  0
  5  6  1  0
  6 31  1  0
  7 21  1  0
  7 34  2  0
  7 35  1  0
  8 32  1  0
  8 33  1  0
  8 36  2  0
  9 12  1  0
  9 14  1  0
 10 13  1  0
 10 18  1  0
 11 15  1  0
 11 19  1  0
 12 21  1  0
 13 22  1  0
 14 24  1  0
 15 23  1  0
 16 20  1  0
 16 22  1  0
 17 22  1  6
 17 23  1  0
 18 21  1  0
 18 24  1  0
 19 22  1  0
 19 24  1  0
 20 23  1  0
 20 32  1  0
 21 25  1  6
 23 26  1  1
 24 27  1  1
 28 30  1  0
 29 31  1  0
 30 35  1  0
 31 33  1  0
  1 37  1  0
  2 38  1  0
  3 39  1  0
  4 40  1  0
  5 41  1  0
  9 42  1  0
  9 43  1  0
 10 44  1  0
 10 45  1  0
 11 46  1  0
 11 47  1  0
 12 48  1  0
 12 49  1  0
 13 50  1  0
 13 51  1  0
 14 52  1  0
 14 53  1  0
 15 54  1  0
 15 55  1  0
 16 56  1  0
 16 57  1  0
 17 58  1  0
 17 59  1  0
 18 60  1  6
 19 61  1  6
 20 62  1  6
 25 63  1  0
 25 64  1  0
 25 65  1  0
 26 66  1  0
 26 67  1  0
 26 68  1  0
 27 69  1  0
 27 70  1  0
 27 71  1  0
 28 72  1  0
 28 73  1  0
 28 74  1  0
 29 75  1  0
 29 76  1  0
 29 77  1  0
 30 78  1  0
 30 79  1  0
 31 80  1  1
 32 81  1  0
 33 82  1  0
M  END
> <Name>
IIe

> <pIC50_JEKO-1>
-1.18

> <original_article_set>
training

$$$$
Ig
  SciTegic08162113593D

 83 87  0  0  1  0            999 V2000
   -8.9906    2.4630   -2.1387 C   0  0
   -9.1100    3.4491   -3.1178 C   0  0
   -7.7370    2.1500   -1.6131 C   0  0
   -6.7220    3.8093   -3.0461 C   0  0
   -7.9757    4.1223   -3.5716 C   0  0
   -6.6027    2.8231   -2.0669 C   0  0
    1.6899    0.0414    2.6907 C   0  0
   -4.2108    3.2889   -1.2666 C   0  0
    3.3089    1.0233    0.1989 C   0  0
    0.3990   -2.1915    1.0024 C   0  0
   -0.2199    1.3755   -1.5517 C   0  0
    3.6937    0.0191    1.2732 C   0  0
   -0.7829   -1.2857    1.3197 C   0  0
    2.6918    0.3055   -0.9861 C   0  0
   -1.4039    0.9318   -2.4118 C   0  0
   -2.0003   -0.9176   -0.8739 C   0  0
    1.6835   -1.4506    0.5720 C   0  0  2  0  0  0
    0.1521    0.4296   -0.3776 C   0  0  1  0  0  0
   -2.1775    0.7741    0.7795 C   0  0  1  0  0  0
   -3.0617    1.1791   -0.4345 C   0  0  2  0  0  0
    2.5040   -0.8286    1.7655 C   0  0  2  0  0  0
   -1.1284   -0.2664    0.2215 C   0  0  2  0  0  0
   -2.5599    0.3024   -1.6102 C   0  0  1  0  0  0
    1.3999   -0.5116   -0.6605 C   0  0  1  0  0  0
   -8.1038    5.1765   -4.6184 C   0  0
    3.0846   -1.9515    2.6584 C   0  0
   -3.6964   -0.0842   -2.5595 C   0  0
    1.1897   -1.3952   -1.9213 C   0  0
    0.9343   -0.5644    6.2193 C   0  0
   -1.6355    1.9168    1.6348 C   0  0
    0.8946    0.1954    4.9105 C   0  0
   -5.3278    2.5049   -1.5317 N   0  0
   -3.1306    2.5845   -0.7296 N   0  0
    1.1659    1.0952    2.3558 O   0  0
   -2.7305    2.6501    2.1515 O   0  0
    1.6399   -0.5302    3.9275 O   0  0
   -4.0278    4.9470   -1.4641 S   0  0
   -9.8739    1.9391   -1.7850 H   0  0
  -10.0906    3.6854   -3.5216 H   0  0
   -7.6559    1.3795   -0.8505 H   0  0
   -5.8388    4.3351   -3.4022 H   0  0
    2.6336    1.7898    0.5903 H   0  0
    4.2113    1.5516   -0.1318 H   0  0
    0.5934   -2.8335    1.8676 H   0  0
    0.0984   -2.8851    0.2082 H   0  0
    0.6256    1.5768   -2.2129 H   0  0
   -0.4631    2.3575   -1.1282 H   0  0
    4.4734   -0.6411    0.8695 H   0  0
    4.1541    0.5610    2.1101 H   0  0
   -1.6532   -1.9239    1.5243 H   0  0
   -0.6044   -0.7658    2.2631 H   0  0
    2.5220    1.0288   -1.7884 H   0  0
    3.4577   -0.3769   -1.3828 H   0  0
   -1.7612    1.7927   -2.9910 H   0  0
   -1.0494    0.2077   -3.1562 H   0  0
   -1.4727   -1.5955   -1.5410 H   0  0
   -2.8175   -1.5017   -0.4275 H   0  0
    2.3475   -2.2401    0.1841 H   0  0
    0.5159    1.0993    0.4080 H   0  0
   -2.8488    0.2167    1.4527 H   0  0
   -4.0948    0.8985   -0.1886 H   0  0
   -8.2658    6.1575   -4.1550 H   0  0
   -7.2018    5.2311   -5.2418 H   0  0
   -8.9441    4.9677   -5.2936 H   0  0
    3.6825   -2.6116    2.0440 H   0  0
    2.2659   -2.4994    3.1060 H   0  0
    3.6977   -1.5026    3.4288 H   0  0
   -4.5116   -0.5283   -1.9926 H   0  0
   -3.3339   -0.8035   -3.2904 H   0  0
   -4.0589    0.8016   -3.0762 H   0  0
    0.3054   -1.9976   -1.7738 H   0  0
    2.0582   -2.0248   -2.0468 H   0  0
    1.0665   -0.7475   -2.7767 H   0  0
    0.4903   -1.5575    6.1076 H   0  0
    1.9656   -0.6756    6.5699 H   0  0
    0.3903   -0.0198    6.9982 H   0  0
   -1.0158    2.5742    1.0257 H   0  0
   -1.0476    1.5160    2.4601 H   0  0
    1.3401    1.1876    5.0291 H   0  0
   -0.1364    0.3049    4.5612 H   0  0
   -5.2514    1.5363   -1.2335 H   0  0
   -2.2949    3.1415   -0.5435 H   0  0
   -2.3628    3.3706    2.6914 H   0  0
  1  2  2  0
  1  3  1  0
  2  5  1  0
  3  6  2  0
  4  5  2  0
  4  6  1  0
  5 25  1  0
  6 32  1  0
  7 21  1  0
  7 34  2  0
  7 36  1  0
  8 32  1  0
  8 33  1  0
  8 37  2  0
  9 12  1  0
  9 14  1  0
 10 13  1  0
 10 17  1  0
 11 15  1  0
 11 18  1  0
 12 21  1  0
 13 22  1  6
 14 24  1  0
 15 23  1  0
 16 22  1  0
 16 23  1  0
 17 21  1  0
 17 24  1  0
 18 22  1  0
 18 24  1  0
 19 20  1  0
 19 22  1  0
 19 30  1  0
 20 23  1  0
 20 33  1  0
 21 26  1  1
 23 27  1  1
 24 28  1  6
 29 31  1  0
 30 35  1  0
 31 36  1  0
  1 38  1  0
  2 39  1  0
  3 40  1  0
  4 41  1  0
  9 42  1  0
  9 43  1  0
 10 44  1  0
 10 45  1  0
 11 46  1  0
 11 47  1  0
 12 48  1  0
 12 49  1  0
 13 50  1  0
 13 51  1  0
 14 52  1  0
 14 53  1  0
 15 54  1  0
 15 55  1  0
 16 56  1  0
 16 57  1  0
 17 58  1  1
 18 59  1  1
 19 60  1  1
 20 61  1  6
 25 62  1  0
 25 63  1  0
 25 64  1  0
 26 65  1  0
 26 66  1  0
 26 67  1  0
 27 68  1  0
 27 69  1  0
 27 70  1  0
 28 71  1  0
 28 72  1  0
 28 73  1  0
 29 74  1  0
 29 75  1  0
 29 76  1  0
 30 77  1  0
 30 78  1  0
 31 79  1  0
 31 80  1  0
 32 81  1  0
 33 82  1  0
 35 83  1  0
M  END
> <Name>
Ig

> <pIC50_JEKO-1>
-1.319

> <original_article_set>
training

$$$$
Ir
  SciTegic08162113593D

 84 88  0  0  1  0            999 V2000
   -0.9089    7.5098    6.2685 C   0  0
    0.2637    8.2640    6.2275 C   0  0
   -1.1461    6.5360    5.2984 C   0  0
    1.1992    8.0444    5.2165 C   0  0
   -0.2106    6.3164    4.2873 C   0  0
    0.9621    7.0706    4.2463 C   0  0
    0.9299   -2.8829   -3.3453 C   0  0
   -1.6444    4.8939    2.7064 C   0  0
   -1.7766   -3.1398   -1.5147 C   0  0
    1.6551   -0.5228   -1.3185 C   0  0
   -1.7523    0.5433    1.2798 C   0  0
   -0.4340   -3.8570   -1.5420 C   0  0
    1.2553    0.9454   -1.2311 C   0  0
   -1.8523   -2.0483   -0.4434 C   0  0
   -1.0199    1.0521    2.5242 C   0  0
    1.1373    1.3203    1.2870 C   0  0
    0.4122   -1.4218   -1.4206 C   0  0  1  0  0  0
   -0.8490    0.2595    0.0531 C   0  0  1  0  0  0
   -0.2380    2.7488   -0.0918 C   0  0  2  0  0  0
   -0.2403    3.2413    1.3815 C   0  0  2  0  0  0
    0.7386   -2.8946   -1.8413 C   0  0  2  0  0  0
    0.3504    1.2771   -0.0352 C   0  0  2  0  0  0
    0.1501    2.0143    2.2313 C   0  0  1  0  0  0
   -0.5115   -1.2809   -0.1656 C   0  0  1  0  0  0
    2.0359   -3.4728   -1.2518 C   0  0
    0.8223    2.4223    3.5450 C   0  0
    0.1247   -1.9234    1.0890 C   0  0
   -1.5072   -1.8907   -5.8880 C   0  0
    1.7474    7.6432    2.0758 C   0  0
    0.5344    3.7480   -0.9605 C   0  0
   -0.1720   -2.3876   -5.3762 C   0  0
   -0.4665    5.3228    3.3073 N   0  0
   -1.4722    3.8718    1.7710 N   0  0
    1.9642   -3.2171   -3.9071 O   0  0
   -0.1139    5.0014   -0.8775 O   0  0
    1.8890    6.8722    3.2668 O   0  0
   -0.2140   -2.4485   -3.9470 O   0  0
   -3.2037    5.4774    2.9301 S   0  0
   -1.6369    7.6807    7.0562 H   0  0
    0.4487    9.0217    6.9833 H   0  0
   -2.0637    5.9545    5.3409 H   0  0
    2.1108    8.6355    5.1907 H   0  0
   -1.9536   -2.6807   -2.4984 H   0  0
   -2.5873   -3.8690   -1.3866 H   0  0
    2.2882   -0.6428   -2.2099 H   0  0
    2.2915   -0.7958   -0.4666 H   0  0
   -2.3642   -0.3183    1.5540 H   0  0
   -2.4782    1.3122    0.9873 H   0  0
   -0.2752   -4.3701   -0.5940 H   0  0
   -0.4795   -4.6303   -2.3110 H   0  0
    2.1678    1.5510   -1.2069 H   0  0
    0.7343    1.2015   -2.1612 H   0  0
   -2.6265   -1.3246   -0.7485 H   0  0
   -2.2282   -2.5128    0.4805 H   0  0
   -1.7491    1.5288    3.1911 H   0  0
   -0.6358    0.1925    3.0860 H   0  0
    1.4502    0.3480    1.6629 H   0  0
    2.0502    1.9208    1.1751 H   0  0
   -0.1707   -1.0302   -2.2583 H   0  0
   -1.4876    0.5012   -0.8146 H   0  0
   -1.2601    2.7203   -0.4907 H   0  0
    0.5297    4.0207    1.5072 H   0  0
    1.9583   -3.5064   -0.1686 H   0  0
    2.8748   -2.8431   -1.5351 H   0  0
    2.1917   -4.4776   -1.6349 H   0  0
    1.6468    3.1005    3.3381 H   0  0
    1.2022    1.5379    4.0508 H   0  0
    0.0987    2.9206    4.1859 H   0  0
    1.0555   -1.4161    1.3102 H   0  0
    0.3124   -2.9713    0.8905 H   0  0
   -0.5599   -1.8210    1.9219 H   0  0
   -2.3147   -2.5657   -5.5911 H   0  0
   -1.7217   -0.8900   -5.4985 H   0  0
   -1.4966   -1.8115   -6.9801 H   0  0
    2.5493    7.3886    1.3785 H   0  0
    1.7885    8.7071    2.3223 H   0  0
    0.7825    7.4146    1.6170 H   0  0
    0.5383    3.4067   -1.9931 H   0  0
    1.5539    3.8391   -0.5932 H   0  0
    0.6311   -1.7080   -5.6766 H   0  0
    0.0404   -3.3877   -5.7656 H   0  0
    0.3806    4.8977    2.9403 H   0  0
   -2.3281    3.5319    1.3306 H   0  0
    0.3883    5.6225   -1.4334 H   0  0
  1  2  2  0
  1  3  1  0
  2  4  1  0
  3  5  2  0
  4  6  2  0
  5  6  1  0
  5 32  1  0
  6 36  1  0
  7 21  1  0
  7 34  2  0
  7 37  1  0
  8 32  1  0
  8 33  1  0
  8 38  2  0
  9 12  1  0
  9 14  1  0
 10 13  1  0
 10 17  1  0
 11 15  1  0
 11 18  1  0
 12 21  1  0
 13 22  1  6
 14 24  1  0
 15 23  1  0
 16 22  1  0
 16 23  1  0
 17 21  1  0
 17 24  1  0
 18 22  1  0
 18 24  1  0
 19 20  1  0
 19 22  1  0
 19 30  1  0
 20 23  1  0
 20 33  1  0
 21 25  1  1
 23 26  1  1
 24 27  1  6
 28 31  1  0
 29 36  1  0
 30 35  1  0
 31 37  1  0
  1 39  1  0
  2 40  1  0
  3 41  1  0
  4 42  1  0
  9 43  1  0
  9 44  1  0
 10 45  1  0
 10 46  1  0
 11 47  1  0
 11 48  1  0
 12 49  1  0
 12 50  1  0
 13 51  1  0
 13 52  1  0
 14 53  1  0
 14 54  1  0
 15 55  1  0
 15 56  1  0
 16 57  1  0
 16 58  1  0
 17 59  1  1
 18 60  1  1
 19 61  1  6
 20 62  1  6
 25 63  1  0
 25 64  1  0
 25 65  1  0
 26 66  1  0
 26 67  1  0
 26 68  1  0
 27 69  1  0
 27 70  1  0
 27 71  1  0
 28 72  1  0
 28 73  1  0
 28 74  1  0
 29 75  1  0
 29 76  1  0
 29 77  1  0
 30 78  1  0
 30 79  1  0
 31 80  1  0
 31 81  1  0
 32 82  1  0
 33 83  1  0
 35 84  1  0
M  END
> <Name>
Ir

> <pIC50_JEKO-1>
-1.451

> <original_article_set>
training

$$$$
IIIa
  SciTegic08162113593D

 66 68  0  0  1  0            999 V2000
   -2.6496   -1.3854   -2.2432 C   0  0
   -2.4326   -0.4168   -1.3471 C   0  0
    0.3812    0.7543    3.8577 C   0  0
    1.6308   -2.4409    2.1851 C   0  0
   -1.3133    0.7520    1.2979 C   0  0
    1.4151    0.1368   -1.3882 C   0  0
   -1.3021    1.3908   -0.0929 C   0  0
    1.4684   -1.3105    3.1937 C   0  0
    1.4780   -1.9368    0.7480 C   0  0
    1.4094    0.6908   -2.8108 C   0  0
   -1.0604    1.1106   -2.6257 C   0  0
    0.0903   -0.5697   -1.0038 C   0  0  2  0  0  0
   -0.0343   -0.0725    1.5375 C   0  0  1  0  0  0
   -1.1419    0.3796   -1.2513 C   0  0  2  0  0  0
    0.1650   -0.4984    3.0304 C   0  0  2  0  0  0
    0.1277   -1.2105    0.4703 C   0  0  2  0  0  0
    0.2945    1.7120   -3.0624 C   0  0  2  0  0  0
   -1.0246   -1.2317    3.6658 C   0  0
   -0.9847   -2.2941    0.5476 C   0  0
    0.2252    2.0036   -4.5801 C   0  0
    2.9957    3.2780    3.4276 C   0  0
    0.6085    3.0515   -2.3718 C   0  0
    1.7812    2.6458    4.0733 C   0  0
   -0.4760    3.9979   -2.6854 N   0  3
   -0.3227    1.0806    4.8038 O   0  0
    1.4620    1.4349    3.3805 O   0  0
   -3.5946   -1.9172   -2.2593 H   0  0
   -1.8958   -1.6642   -2.9716 H   0  0
   -3.2188   -0.1740   -0.6376 H   0  0
    2.6305   -2.8776    2.3011 H   0  0
    0.9286   -3.2496    2.4063 H   0  0
   -1.3846    1.5606    2.0352 H   0  0
   -2.2152    0.1468    1.4285 H   0  0
    2.2414   -0.5810   -1.3558 H   0  0
    1.6594    0.9301   -0.6760 H   0  0
   -2.2228    1.9765   -0.2177 H   0  0
   -0.4899    2.1188   -0.1016 H   0  0
    1.5402   -1.7198    4.2100 H   0  0
    2.3329   -0.6392    3.0884 H   0  0
    2.3191   -1.2554    0.5821 H   0  0
    1.6061   -2.7742    0.0511 H   0  0
    2.3880    1.1396   -3.0245 H   0  0
    1.3032   -0.1528   -3.5064 H   0  0
   -1.3423    0.3813   -3.4021 H   0  0
   -1.8348    1.8901   -2.6758 H   0  0
    0.0073   -1.4097   -1.7108 H   0  0
    0.7937    0.6267    1.3421 H   0  0
   -1.2258   -2.1430    3.1102 H   0  0
   -1.9004   -0.5899    3.6394 H   0  0
   -0.7873   -1.4798    4.6963 H   0  0
   -1.9365   -1.8205    0.3588 H   0  0
   -0.9689   -2.7298    1.5354 H   0  0
   -0.7817   -3.0459   -0.2004 H   0  0
   -0.5612    2.7245   -4.7619 H   0  0
    0.0119    1.0808   -5.1037 H   0  0
    1.1779    2.4029   -4.9030 H   0  0
    3.8585    2.6082    3.4799 H   0  0
    2.7952    3.5149    2.3775 H   0  0
    3.2496    4.2206    3.9236 H   0  0
    1.5372    3.4634   -2.7499 H   0  0
    0.6449    2.9227   -1.2961 H   0  0
    0.9219    3.3207    4.0176 H   0  0
    1.9834    2.4090    5.1221 H   0  0
   -0.2899    4.5089   -3.5593 H   0  0
   -0.5930    4.6974   -1.9392 H   0  0
   -1.3778    3.5144   -2.7980 H   0  0
  1  2  2  0
  2 14  1  1
  3 15  1  1
  3 25  2  0
  3 26  1  0
  4  8  1  0
  4  9  1  0
  5  7  1  0
  5 13  1  0
  6 10  1  0
  6 12  1  0
  7 14  1  0
  8 15  1  0
  9 16  1  0
 10 17  1  0
 11 14  1  0
 11 17  1  0
 12 14  1  0
 12 16  1  0
 13 15  1  0
 13 16  1  0
 15 18  1  0
 16 19  1  1
 17 20  1  1
 17 22  1  0
 21 23  1  0
 22 24  1  0
 23 26  1  0
  1 27  1  0
  1 28  1  0
  2 29  1  0
  4 30  1  0
  4 31  1  0
  5 32  1  0
  5 33  1  0
  6 34  1  0
  6 35  1  0
  7 36  1  0
  7 37  1  0
  8 38  1  0
  8 39  1  0
  9 40  1  0
  9 41  1  0
 10 42  1  0
 10 43  1  0
 11 44  1  0
 11 45  1  0
 12 46  1  6
 13 47  1  6
 18 48  1  0
 18 49  1  0
 18 50  1  0
 19 51  1  0
 19 52  1  0
 19 53  1  0
 20 54  1  0
 20 55  1  0
 20 56  1  0
 21 57  1  0
 21 58  1  0
 21 59  1  0
 22 60  1  0
 22 61  1  0
 23 62  1  0
 23 63  1  0
 24 64  1  0
 24 65  1  0
 24 66  1  0
M  CHG  1  24   1
M  END
> <Name>
IIIa

> <pIC50_JEKO-1>
-0.335

> <original_article_set>
test

$$$$
IIIc
  SciTegic08162113593D

 79 82  0  0  1  0            999 V2000
    0.2145    7.1371    3.2927 C   0  0
    1.3720    6.9155    2.5467 C   0  0
   -0.9998    6.5929    2.8742 C   0  0
    1.3154    6.1498    1.3821 C   0  0
   -1.0565    5.8273    1.7096 C   0  0
    0.1011    5.6057    0.9636 C   0  0
   -2.6496   -1.3854   -2.2432 C   0  0
   -2.4326   -0.4168   -1.3471 C   0  0
    0.3812    0.7543    3.8577 C   0  0
   -0.9384    4.6907   -1.1953 C   0  0
    1.6308   -2.4409    2.1851 C   0  0
   -1.3133    0.7520    1.2979 C   0  0
    1.4151    0.1368   -1.3882 C   0  0
   -1.3021    1.3908   -0.0929 C   0  0
    1.4684   -1.3105    3.1937 C   0  0
    1.4780   -1.9368    0.7480 C   0  0
    1.4094    0.6908   -2.8108 C   0  0
   -1.0604    1.1106   -2.6257 C   0  0
    0.0903   -0.5697   -1.0038 C   0  0  2  0  0  0
   -0.0343   -0.0725    1.5375 C   0  0  1  0  0  0
   -1.1419    0.3796   -1.2513 C   0  0  2  0  0  0
    0.1650   -0.4984    3.0304 C   0  0  2  0  0  0
    0.1277   -1.2105    0.4703 C   0  0  2  0  0  0
    0.2945    1.7120   -3.0624 C   0  0  2  0  0  0
   -1.0246   -1.2317    3.6658 C   0  0
   -0.9847   -2.2941    0.5476 C   0  0
    0.2252    2.0036   -4.5801 C   0  0
    2.9957    3.2780    3.4276 C   0  0
    0.6085    3.0515   -2.3718 C   0  0
    1.7812    2.6458    4.0733 C   0  0
    0.0437    4.8268   -0.2209 N   0  0
   -0.5908    3.7979   -2.2268 N   0  0
   -0.3227    1.0806    4.8038 O   0  0
    1.4620    1.4349    3.3805 O   0  0
   -2.4182    5.4782   -1.3038 S   0  0
    0.2583    7.7326    4.1999 H   0  0
    2.3178    7.3382    2.8727 H   0  0
   -1.9009    6.7648    3.4558 H   0  0
    2.2241    5.9837    0.8089 H   0  0
   -2.0084    5.4081    1.3932 H   0  0
   -3.5946   -1.9172   -2.2593 H   0  0
   -1.8958   -1.6642   -2.9716 H   0  0
   -3.2188   -0.1740   -0.6376 H   0  0
    2.6305   -2.8776    2.3011 H   0  0
    0.9286   -3.2496    2.4063 H   0  0
   -1.3846    1.5606    2.0352 H   0  0
   -2.2152    0.1468    1.4285 H   0  0
    2.2414   -0.5810   -1.3558 H   0  0
    1.6594    0.9301   -0.6760 H   0  0
   -2.2228    1.9765   -0.2177 H   0  0
   -0.4899    2.1188   -0.1016 H   0  0
    1.5402   -1.7198    4.2100 H   0  0
    2.3329   -0.6392    3.0884 H   0  0
    2.3191   -1.2554    0.5821 H   0  0
    1.6061   -2.7742    0.0511 H   0  0
    2.3880    1.1396   -3.0245 H   0  0
    1.3032   -0.1528   -3.5064 H   0  0
   -1.3423    0.3813   -3.4021 H   0  0
   -1.8348    1.8901   -2.6758 H   0  0
    0.0073   -1.4097   -1.7108 H   0  0
    0.7937    0.6267    1.3421 H   0  0
   -1.2258   -2.1430    3.1102 H   0  0
   -1.9004   -0.5899    3.6394 H   0  0
   -0.7873   -1.4798    4.6963 H   0  0
   -1.9365   -1.8205    0.3588 H   0  0
   -0.9689   -2.7298    1.5354 H   0  0
   -0.7817   -3.0459   -0.2004 H   0  0
   -0.5612    2.7245   -4.7619 H   0  0
    0.0119    1.0808   -5.1037 H   0  0
    1.1779    2.4029   -4.9030 H   0  0
    3.8585    2.6082    3.4799 H   0  0
    2.7952    3.5149    2.3775 H   0  0
    3.2496    4.2206    3.9236 H   0  0
    1.0383    2.8093   -1.4053 H   0  0
    1.3180    3.5702   -3.0083 H   0  0
    0.9219    3.3207    4.0176 H   0  0
    1.9834    2.4090    5.1221 H   0  0
    0.9095    4.3305   -0.4137 H   0  0
   -1.3225    3.6820   -2.9418 H   0  0
  1  2  2  0
  1  3  1  0
  2  4  1  0
  3  5  2  0
  4  6  2  0
  5  6  1  0
  6 31  1  0
  7  8  2  0
  8 21  1  1
  9 22  1  1
  9 33  2  0
  9 34  1  0
 10 31  1  0
 10 32  1  0
 10 35  2  0
 11 15  1  0
 11 16  1  0
 12 14  1  0
 12 20  1  0
 13 17  1  0
 13 19  1  0
 14 21  1  0
 15 22  1  0
 16 23  1  0
 17 24  1  0
 18 21  1  0
 18 24  1  0
 19 21  1  0
 19 23  1  0
 20 22  1  0
 20 23  1  0
 22 25  1  0
 23 26  1  1
 24 27  1  0
 24 29  1  1
 28 30  1  0
 29 32  1  0
 30 34  1  0
  1 36  1  0
  2 37  1  0
  3 38  1  0
  4 39  1  0
  5 40  1  0
  7 41  1  0
  7 42  1  0
  8 43  1  0
 11 44  1  0
 11 45  1  0
 12 46  1  0
 12 47  1  0
 13 48  1  0
 13 49  1  0
 14 50  1  0
 14 51  1  0
 15 52  1  0
 15 53  1  0
 16 54  1  0
 16 55  1  0
 17 56  1  0
 17 57  1  0
 18 58  1  0
 18 59  1  0
 19 60  1  6
 20 61  1  6
 25 62  1  0
 25 63  1  0
 25 64  1  0
 26 65  1  0
 26 66  1  0
 26 67  1  0
 27 68  1  0
 27 69  1  0
 27 70  1  0
 28 71  1  0
 28 72  1  0
 28 73  1  0
 29 74  1  0
 29 75  1  0
 30 76  1  0
 30 77  1  0
 31 78  1  0
 32 79  1  0
M  END
> <Name>
IIIc

> <pIC50_JEKO-1>
-0.443

> <original_article_set>
training

$$$$
Ih
  SciTegic08162113593D

 83 87  0  0  1  0            999 V2000
   -1.2244    2.7514   -8.5558 C   0  0
    1.1086    2.9098   -9.1631 C   0  0
   -0.8634    2.5263   -7.2274 C   0  0
    1.4697    2.6847   -7.8348 C   0  0
   -0.2385    2.9431   -9.5237 C   0  0
    0.4837    2.4930   -6.8669 C   0  0
    0.4819   -1.9608    4.0400 C   0  0
    1.9001    2.7515   -4.7443 C   0  0
   -1.5219   -3.1215    1.0179 C   0  0
    0.6254    0.5300    2.1560 C   0  0
   -1.3070   -0.2273   -1.7514 C   0  0
   -0.8889   -3.1297    2.3964 C   0  0
    1.4832    0.6170    0.9007 C   0  0
   -2.2457   -1.8041    0.8082 C   0  0
   -1.4899    1.2045   -2.2553 C   0  0
    0.2081    2.1242   -0.6798 C   0  0
   -0.4189   -0.6058    2.1564 C   0  0  2  0  0  0
   -0.4709   -0.3698   -0.4500 C   0  0  1  0  0  0
    1.6225    0.4769   -1.6976 C   0  0  2  0  0  0
    0.9847    1.3658   -2.8190 C   0  0  1  0  0  0
    0.1650   -2.0174    2.5578 C   0  0  1  0  0  0
    0.7033    0.6898   -0.4184 C   0  0  2  0  0  0
   -0.2203    2.0741   -2.1459 C   0  0  1  0  0  0
   -1.3336   -0.5351    0.8734 C   0  0  1  0  0  0
   -0.6246    3.1838  -10.9439 C   0  0
    1.4591   -2.4559    1.8580 C   0  0
   -0.5373    3.4735   -2.6855 C   0  0
   -2.3356    0.6392    1.0575 C   0  0
   -1.8367   -1.2629    6.7833 C   0  0
    3.1192    0.7523   -1.4864 C   0  0
   -0.4968   -1.5879    6.1582 C   0  0
    0.8513    2.2643   -5.5157 N   0  0
    1.9177    2.2799   -3.4329 N   0  0
    1.5955   -2.1502    4.5102 O   0  0
    3.7925    0.4754   -2.6968 O   0  0
   -0.6530   -1.6718    4.7381 O   0  0
    3.0921    3.8527   -5.1782 S   0  0
   -2.2764    2.7736   -8.8281 H   0  0
    1.8834    3.0575   -9.9109 H   0  0
   -1.6402    2.3786   -6.4813 H   0  0
    2.5225    2.6597   -7.5649 H   0  0
   -0.7785   -3.2981    0.2347 H   0  0
   -2.2454   -3.9429    0.9522 H   0  0
    1.2828    0.4346    3.0286 H   0  0
    0.1123    1.4900    2.2910 H   0  0
   -2.2915   -0.6932   -1.6772 H   0  0
   -0.7986   -0.7992   -2.5396 H   0  0
   -1.6769   -3.0133    3.1540 H   0  0
   -0.4466   -4.1163    2.5875 H   0  0
    2.1349    1.4943    1.0049 H   0  0
    2.1611   -0.2349    0.8690 H   0  0
   -2.8047   -1.8566   -0.1294 H   0  0
   -3.0180   -1.7331    1.5879 H   0  0
   -1.8252    1.1642   -3.3001 H   0  0
   -2.3053    1.6815   -1.6986 H   0  0
   -0.5970    2.4540   -0.0268 H   0  0
    1.0250    2.8469   -0.5466 H   0  0
   -1.0920   -0.3550    2.9926 H   0  0
    0.0291   -1.3408   -0.5570 H   0  0
    1.5635   -0.5717   -2.0181 H   0  0
    0.6400    0.7288   -3.6422 H   0  0
   -0.7460    4.2579  -11.1300 H   0  0
    0.1345    2.7946  -11.6347 H   0  0
   -1.5677    2.6790  -11.1914 H   0  0
    1.2887   -2.5135    0.7870 H   0  0
    1.7585   -3.4310    2.2308 H   0  0
    2.2430   -1.7325    2.0625 H   0  0
    0.3485    4.0994   -2.6153 H   0  0
   -1.3392    3.9157   -2.1001 H   0  0
   -0.8466    3.4007   -3.7249 H   0  0
   -1.7756    1.5608    1.1117 H   0  0
   -2.8867    0.4778    1.9718 H   0  0
   -3.0049    0.6531    0.2103 H   0  0
   -2.2162   -0.3050    6.4168 H   0  0
   -2.5690   -2.0442    6.5546 H   0  0
   -1.7522   -1.2154    7.8741 H   0  0
    3.4978    0.1062   -0.6993 H   0  0
    3.2604    1.7954   -1.2177 H   0  0
   -0.1230   -2.5470    6.5289 H   0  0
    0.2334   -0.8060    6.3870 H   0  0
    0.1828    1.6866   -5.0133 H   0  0
    2.6875    2.6111   -2.8533 H   0  0
    4.7379    0.6538   -2.5489 H   0  0
  1  3  1  0
  1  5  2  0
  2  4  2  0
  2  5  1  0
  3  6  2  0
  4  6  1  0
  5 25  1  0
  6 32  1  0
  7 21  1  0
  7 34  2  0
  7 36  1  0
  8 32  1  0
  8 33  1  0
  8 37  2  0
  9 12  1  0
  9 14  1  0
 10 13  1  0
 10 17  1  0
 11 15  1  0
 11 18  1  0
 12 21  1  0
 13 22  1  6
 14 24  1  0
 15 23  1  0
 16 22  1  0
 16 23  1  0
 17 21  1  0
 17 24  1  0
 18 22  1  0
 18 24  1  0
 19 20  1  0
 19 22  1  0
 19 30  1  0
 20 23  1  0
 20 33  1  0
 21 26  1  1
 23 27  1  1
 24 28  1  6
 29 31  1  0
 30 35  1  0
 31 36  1  0
  1 38  1  0
  2 39  1  0
  3 40  1  0
  4 41  1  0
  9 42  1  0
  9 43  1  0
 10 44  1  0
 10 45  1  0
 11 46  1  0
 11 47  1  0
 12 48  1  0
 12 49  1  0
 13 50  1  0
 13 51  1  0
 14 52  1  0
 14 53  1  0
 15 54  1  0
 15 55  1  0
 16 56  1  0
 16 57  1  0
 17 58  1  1
 18 59  1  1
 19 60  1  1
 20 61  1  1
 25 62  1  0
 25 63  1  0
 25 64  1  0
 26 65  1  0
 26 66  1  0
 26 67  1  0
 27 68  1  0
 27 69  1  0
 27 70  1  0
 28 71  1  0
 28 72  1  0
 28 73  1  0
 29 74  1  0
 29 75  1  0
 29 76  1  0
 30 77  1  0
 30 78  1  0
 31 79  1  0
 31 80  1  0
 32 81  1  0
 33 82  1  0
 35 83  1  0
M  END
> <Name>
Ih

> <pIC50_JEKO-1>
-1.48

> <original_article_set>
training

$$$$
Iy
  SciTegic08162113593D

 86 90  0  0  1  0            999 V2000
   -2.8477    7.7722   -5.3919 C   0  0
   -3.2812    6.5097   -5.7965 C   0  0
   -2.3822    7.9661   -4.0913 C   0  0
   -3.2494    5.4411   -4.9006 C   0  0
   -2.3503    6.8975   -3.1954 C   0  0
   -2.7839    5.6350   -3.6000 C   0  0
    1.1750   -0.2785    2.9441 C   0  0
   -3.7199    4.0160   -1.8446 C   0  0
    3.4317   -0.3577    0.7762 C   0  0
   -0.6445   -2.0005    1.1451 C   0  0
    0.7062    1.1639   -1.6485 C   0  0
    3.1828   -1.2856    1.9541 C   0  0
   -1.3726   -0.6643    1.1815 C   0  0
    2.7667   -0.9096   -0.4704 C   0  0
   -0.4035    1.1330   -2.7020 C   0  0
   -1.9628   -0.0970   -1.2188 C   0  0
    0.8824   -1.8979    0.9421 C   0  0  2  0  0  0
    0.4535    0.3059   -0.3781 C   0  0  1  0  0  0
   -1.6744    1.6930    0.2855 C   0  0  1  0  0  0
   -1.9820    2.3160   -1.1005 C   0  0  1  0  0  0
    1.6855   -1.5126    2.2425 C   0  0  2  0  0  0
   -1.0776    0.2655   -0.0072 C   0  0  2  0  0  0
   -1.8283    1.1424   -2.1079 C   0  0  1  0  0  0
    1.2175   -1.0862   -0.3654 C   0  0  1  0  0  0
   -3.7205    4.1004   -5.3635 C   0  0
   -1.8459    7.1371   -1.8092 C   0  0
    1.5913   -2.6509    3.2868 C   0  0
   -2.8445    1.1288   -3.2531 C   0  0
    0.8558   -1.9582   -1.5997 C   0  0
   -0.3174   -0.0749    6.2787 C   0  0
   -0.8672    2.6246    1.1842 C   0  0
    0.1745    0.4634    4.9521 C   0  0
   -2.7518    4.5482   -2.6884 N   0  0
   -3.2910    2.9261   -1.0906 N   0  0
    1.2019    0.8451    2.4604 O   0  0
   -1.6060    3.8171    1.3767 O   0  0
    0.6933   -0.6193    4.1732 O   0  0
   -5.3222    4.4874   -1.6650 S   0  0
   -2.8722    8.6044   -6.0895 H   0  0
   -3.6426    6.3690   -6.8118 H   0  0
   -2.0461    8.9537   -3.7864 H   0  0
    3.0885    0.6592    0.9880 H   0  0
    4.5125   -0.2854    0.6043 H   0  0
   -0.8773   -2.5542    2.0604 H   0  0
   -1.0765   -2.6071    0.3404 H   0  0
    1.6509    0.9219   -2.1398 H   0  0
    0.8333    2.2063   -1.3293 H   0  0
    3.6672   -2.2494    1.7462 H   0  0
    3.6879   -0.8731    2.8377 H   0  0
   -2.4505   -0.8683    1.2385 H   0  0
   -1.1480   -0.1490    2.1176 H   0  0
    3.0466   -0.2878   -1.3252 H   0  0
    3.2264   -1.8877   -0.6741 H   0  0
   -0.2717    1.9931   -3.3715 H   0  0
   -0.2765    0.2424   -3.3297 H   0  0
   -1.6787   -1.0098   -1.7380 H   0  0
   -3.0097   -0.2321   -0.9124 H   0  0
    1.2086   -2.9293    0.7310 H   0  0
    0.9345    0.8661    0.4298 H   0  0
   -2.6329    1.5344    0.8052 H   0  0
   -1.2902    3.1296   -1.3455 H   0  0
   -2.8859    3.5314   -5.7881 H   0  0
   -4.1515    3.5252   -4.5353 H   0  0
   -4.5024    4.1980   -6.1264 H   0  0
   -2.6720    7.4273   -1.1502 H   0  0
   -1.3709    6.2373   -1.4002 H   0  0
   -1.0906    7.9322   -1.7953 H   0  0
    1.9470   -3.5680    2.8362 H   0  0
    0.5585   -2.7613    3.5901 H   0  0
    2.2046   -2.3929    4.1402 H   0  0
   -3.8531    1.1352   -2.8465 H   0  0
   -2.7049    0.2336   -3.8546 H   0  0
   -2.7027    2.0077   -3.8776 H   0  0
   -0.2109   -2.1270   -1.5989 H   0  0
    1.3860   -2.8960   -1.5236 H   0  0
    1.1531   -1.4280   -2.4925 H   0  0
   -1.1128   -0.8106    6.1306 H   0  0
    0.5017   -0.5463    6.8317 H   0  0
   -0.6996    0.7368    6.9067 H   0  0
    0.0859    2.8634    0.7122 H   0  0
   -0.6909    2.1502    2.1497 H   0  0
    0.9698    1.1986    5.1074 H   0  0
   -0.6453    0.9333    4.4006 H   0  0
   -1.8752    4.0343   -2.7118 H   0  0
   -3.9785    2.5292   -0.4525 H   0  0
   -1.0732    4.3934    1.9508 H   0  0
  1  2  2  0
  1  3  1  0
  2  4  1  0
  3  5  2  0
  4  6  2  0
  4 25  1  0
  5  6  1  0
  5 26  1  0
  6 33  1  0
  7 21  1  6
  7 35  2  0
  7 37  1  0
  8 33  1  0
  8 34  1  0
  8 38  2  0
  9 12  1  0
  9 14  1  0
 10 13  1  0
 10 17  1  0
 11 15  1  0
 11 18  1  0
 12 21  1  0
 13 22  1  1
 14 24  1  0
 15 23  1  0
 16 22  1  0
 16 23  1  0
 17 21  1  0
 17 24  1  0
 18 22  1  0
 18 24  1  0
 19 20  1  0
 19 22  1  0
 19 31  1  0
 20 23  1  0
 20 34  1  0
 21 27  1  0
 23 28  1  1
 24 29  1  6
 30 32  1  0
 31 36  1  0
 32 37  1  0
  1 39  1  0
  2 40  1  0
  3 41  1  0
  9 42  1  0
  9 43  1  0
 10 44  1  0
 10 45  1  0
 11 46  1  0
 11 47  1  0
 12 48  1  0
 12 49  1  0
 13 50  1  0
 13 51  1  0
 14 52  1  0
 14 53  1  0
 15 54  1  0
 15 55  1  0
 16 56  1  0
 16 57  1  0
 17 58  1  1
 18 59  1  1
 19 60  1  1
 20 61  1  1
 25 62  1  0
 25 63  1  0
 25 64  1  0
 26 65  1  0
 26 66  1  0
 26 67  1  0
 27 68  1  0
 27 69  1  0
 27 70  1  0
 28 71  1  0
 28 72  1  0
 28 73  1  0
 29 74  1  0
 29 75  1  0
 29 76  1  0
 30 77  1  0
 30 78  1  0
 30 79  1  0
 31 80  1  0
 31 81  1  0
 32 82  1  0
 32 83  1  0
 33 84  1  0
 34 85  1  0
 36 86  1  0
M  END
> <Name>
Iy

> <pIC50_JEKO-1>
-1.324

> <original_article_set>
training

$$$$
Ik
  SciTegic08162113593D

 80 84  0  0  1  0            999 V2000
   -2.0539    5.5718   -4.7869 C   0  0
   -3.5457    6.7667   -3.3092 C   0  0
   -2.0858    6.6401   -5.6831 C   0  0
   -3.5775    7.8352   -4.2053 C   0  0
   -2.7839    5.6350   -3.6000 C   0  0
   -2.8476    7.7719   -5.3923 C   0  0
    1.1750   -0.2785    2.9441 C   0  0
   -3.7199    4.0160   -1.8446 C   0  0
    3.4317   -0.3577    0.7762 C   0  0
   -0.6445   -2.0005    1.1451 C   0  0
    0.7062    1.1639   -1.6485 C   0  0
    3.1828   -1.2856    1.9541 C   0  0
   -1.3726   -0.6643    1.1815 C   0  0
    2.7667   -0.9096   -0.4704 C   0  0
   -0.4035    1.1330   -2.7020 C   0  0
   -1.9628   -0.0970   -1.2188 C   0  0
    0.8824   -1.8979    0.9421 C   0  0  2  0  0  0
    0.4535    0.3059   -0.3781 C   0  0  1  0  0  0
   -1.6744    1.6930    0.2855 C   0  0  1  0  0  0
   -1.9820    2.3160   -1.1005 C   0  0  1  0  0  0
    1.6855   -1.5126    2.2425 C   0  0  2  0  0  0
   -1.0776    0.2655   -0.0072 C   0  0  2  0  0  0
   -1.8283    1.1424   -2.1079 C   0  0  1  0  0  0
    1.2175   -1.0862   -0.3654 C   0  0  1  0  0  0
    1.5913   -2.6509    3.2868 C   0  0
   -2.8445    1.1288   -3.2531 C   0  0
    0.8558   -1.9582   -1.5997 C   0  0
   -0.3174   -0.0749    6.2787 C   0  0
   -0.8672    2.6246    1.1842 C   0  0
    0.1745    0.4634    4.9521 C   0  0
   -2.7518    4.5482   -2.6884 N   0  0
   -3.2910    2.9261   -1.0906 N   0  0
    1.2019    0.8451    2.4604 O   0  0
   -1.6060    3.8171    1.3767 O   0  0
    0.6933   -0.6193    4.1732 O   0  0
   -2.8774    8.7985   -6.2522 F   0  0
   -5.3222    4.4874   -1.6650 S   0  0
   -1.4570    4.6948   -5.0243 H   0  0
   -4.1204    6.8260   -2.3884 H   0  0
   -1.5183    6.5909   -6.6075 H   0  0
   -4.1695    8.7169   -3.9786 H   0  0
    3.0885    0.6592    0.9880 H   0  0
    4.5125   -0.2854    0.6043 H   0  0
   -0.8773   -2.5542    2.0604 H   0  0
   -1.0765   -2.6071    0.3404 H   0  0
    1.6509    0.9219   -2.1398 H   0  0
    0.8333    2.2063   -1.3293 H   0  0
    3.6672   -2.2494    1.7462 H   0  0
    3.6879   -0.8731    2.8377 H   0  0
   -2.4505   -0.8683    1.2385 H   0  0
   -1.1480   -0.1490    2.1176 H   0  0
    3.0466   -0.2878   -1.3252 H   0  0
    3.2264   -1.8877   -0.6741 H   0  0
   -0.2717    1.9931   -3.3715 H   0  0
   -0.2765    0.2424   -3.3297 H   0  0
   -1.6787   -1.0098   -1.7380 H   0  0
   -3.0097   -0.2321   -0.9124 H   0  0
    1.2086   -2.9293    0.7310 H   0  0
    0.9345    0.8661    0.4298 H   0  0
   -2.6329    1.5344    0.8052 H   0  0
   -1.2902    3.1296   -1.3455 H   0  0
    1.9470   -3.5680    2.8362 H   0  0
    0.5585   -2.7613    3.5901 H   0  0
    2.2046   -2.3929    4.1402 H   0  0
   -3.8531    1.1352   -2.8465 H   0  0
   -2.7049    0.2336   -3.8546 H   0  0
   -2.7027    2.0077   -3.8776 H   0  0
   -0.2109   -2.1270   -1.5989 H   0  0
    1.3860   -2.8960   -1.5236 H   0  0
    1.1531   -1.4280   -2.4925 H   0  0
   -1.1128   -0.8106    6.1306 H   0  0
    0.5017   -0.5463    6.8317 H   0  0
   -0.6996    0.7368    6.9067 H   0  0
    0.0859    2.8634    0.7122 H   0  0
   -0.6909    2.1502    2.1497 H   0  0
    0.9698    1.1986    5.1074 H   0  0
   -0.6453    0.9333    4.4006 H   0  0
   -1.8752    4.0343   -2.7118 H   0  0
   -3.9785    2.5292   -0.4525 H   0  0
   -1.0732    4.3934    1.9508 H   0  0
  1  3  1  0
  1  5  2  0
  2  4  2  0
  2  5  1  0
  3  6  2  0
  4  6  1  0
  5 31  1  0
  6 36  1  0
  7 21  1  6
  7 33  2  0
  7 35  1  0
  8 31  1  0
  8 32  1  0
  8 37  2  0
  9 12  1  0
  9 14  1  0
 10 13  1  0
 10 17  1  0
 11 15  1  0
 11 18  1  0
 12 21  1  0
 13 22  1  1
 14 24  1  0
 15 23  1  0
 16 22  1  0
 16 23  1  0
 17 21  1  0
 17 24  1  0
 18 22  1  0
 18 24  1  0
 19 20  1  0
 19 22  1  0
 19 29  1  0
 20 23  1  0
 20 32  1  0
 21 25  1  0
 23 26  1  1
 24 27  1  6
 28 30  1  0
 29 34  1  0
 30 35  1  0
  1 38  1  0
  2 39  1  0
  3 40  1  0
  4 41  1  0
  9 42  1  0
  9 43  1  0
 10 44  1  0
 10 45  1  0
 11 46  1  0
 11 47  1  0
 12 48  1  0
 12 49  1  0
 13 50  1  0
 13 51  1  0
 14 52  1  0
 14 53  1  0
 15 54  1  0
 15 55  1  0
 16 56  1  0
 16 57  1  0
 17 58  1  1
 18 59  1  1
 19 60  1  1
 20 61  1  1
 25 62  1  0
 25 63  1  0
 25 64  1  0
 26 65  1  0
 26 66  1  0
 26 67  1  0
 27 68  1  0
 27 69  1  0
 27 70  1  0
 28 71  1  0
 28 72  1  0
 28 73  1  0
 29 74  1  0
 29 75  1  0
 30 76  1  0
 30 77  1  0
 31 78  1  0
 32 79  1  0
 34 80  1  0
M  END
> <Name>
Ik

> <pIC50_JEKO-1>
-1.375

> <original_article_set>
training

$$$$
Ib
  SciTegic08162113593D

 66 69  0  0  1  0            999 V2000
   -3.2104    4.1293    0.0362 C   0  0
    3.0144    0.2101   -1.0716 C   0  0
    1.2393   -1.5943   -2.9088 C   0  0
    1.6485   -0.9622    1.4347 C   0  0
   -1.8241    0.1148   -1.0855 C   0  0
    2.6128   -1.8650   -2.3170 C   0  0
    1.1913    0.4910    1.4368 C   0  0
    0.1629   -2.1563   -2.0002 C   0  0
   -2.9293    0.2331   -0.0354 C   0  0
   -1.3093    0.4176    1.8441 C   0  0
    1.5965   -1.6491    0.0528 C   0  0  2  0  0  0
   -0.3877   -0.0704   -0.5258 C   0  0  1  0  0  0
   -0.4913    2.2679    0.5400 C   0  0  2  0  0  0
   -1.9911    2.4661    0.8839 C   0  0  2  0  0  0
    2.7917   -1.2733   -0.9048 C   0  0  2  0  0  0
   -0.1960    0.7336    0.8237 C   0  0  2  0  0  0
   -2.5388    1.0627    1.2024 C   0  0  1  0  0  0
    0.1468   -1.5633   -0.5544 C   0  0  1  0  0  0
    4.1215   -1.8313   -0.3431 C   0  0
   -3.7183    1.1214    2.1760 C   0  0
   -0.7818   -2.5293    0.2328 C   0  0
    5.9362    2.1499   -0.0280 C   0  0
    0.3423    3.2723    1.3456 C   0  0
    4.5700    1.9367   -0.6443 C   0  0
   -2.7005    3.1040   -0.2263 N   0  0
    2.2112    0.9686   -1.5975 O   0  0
   -0.0663    4.5763    0.9849 O   0  0
    4.2282    0.5501   -0.5519 O   0  0
   -3.9112    5.5213    0.3649 S   0  0
    1.0840   -0.5266   -3.0895 H   0  0
    1.1730   -2.0826   -3.8886 H   0  0
    2.6587   -1.0143    1.8536 H   0  0
    1.0275   -1.5227    2.1434 H   0  0
   -2.1050   -0.6674   -1.7938 H   0  0
   -1.8303    1.0333   -1.6871 H   0  0
    2.7696   -2.9517   -2.2829 H   0  0
    3.3737   -1.4670   -3.0016 H   0  0
    1.2132    0.8468    2.4751 H   0  0
    1.9340    1.0974    0.9169 H   0  0
   -0.8075   -2.0490   -2.4926 H   0  0
    0.3273   -3.2422   -1.9410 H   0  0
   -3.8231    0.6558   -0.5119 H   0  0
   -3.2192   -0.7744    0.2879 H   0  0
   -1.4595   -0.6400    2.0476 H   0  0
   -1.0920    0.8882    2.8132 H   0  0
    1.7576   -2.7189    0.2630 H   0  0
    0.2502    0.4491   -1.2515 H   0  0
   -0.3031    2.4959   -0.5170 H   0  0
   -2.0935    3.1141    1.7639 H   0  0
    4.0198   -2.8993   -0.2023 H   0  0
    4.3299   -1.3492    0.6029 H   0  0
    4.9136   -1.6226   -1.0501 H   0  0
   -3.4425    1.7071    3.0500 H   0  0
   -3.9853    0.1143    2.4883 H   0  0
   -4.5728    1.5847    1.6879 H   0  0
   -0.8467   -2.1852    1.2545 H   0  0
   -0.3552   -3.5207    0.1952 H   0  0
   -1.7572   -2.5204   -0.2309 H   0  0
    5.9383    1.8596    1.0263 H   0  0
    6.6944    1.5638   -0.5577 H   0  0
    6.2347    3.2007   -0.1056 H   0  0
    1.3959    3.1413    1.1113 H   0  0
    0.1728    3.1166    2.4081 H   0  0
    4.5748    2.2290   -1.6987 H   0  0
    3.8136    2.5224   -0.1135 H   0  0
    0.4709    5.2004    1.5036 H   0  0
  1 25  2  0
  1 29  2  0
  2 15  1  0
  2 26  2  0
  2 28  1  0
  3  6  1  0
  3  8  1  0
  4  7  1  0
  4 11  1  0
  5  9  1  0
  5 12  1  0
  6 15  1  0
  7 16  1  6
  8 18  1  0
  9 17  1  0
 10 16  1  0
 10 17  1  0
 11 15  1  0
 11 18  1  0
 12 16  1  0
 12 18  1  0
 13 14  1  0
 13 16  1  0
 13 23  1  0
 14 17  1  0
 14 25  1  0
 15 19  1  1
 17 20  1  1
 18 21  1  6
 22 24  1  0
 23 27  1  0
 24 28  1  0
  3 30  1  0
  3 31  1  0
  4 32  1  0
  4 33  1  0
  5 34  1  0
  5 35  1  0
  6 36  1  0
  6 37  1  0
  7 38  1  0
  7 39  1  0
  8 40  1  0
  8 41  1  0
  9 42  1  0
  9 43  1  0
 10 44  1  0
 10 45  1  0
 11 46  1  1
 12 47  1  6
 13 48  1  6
 14 49  1  1
 19 50  1  0
 19 51  1  0
 19 52  1  0
 20 53  1  0
 20 54  1  0
 20 55  1  0
 21 56  1  0
 21 57  1  0
 21 58  1  0
 22 59  1  0
 22 60  1  0
 22 61  1  0
 23 62  1  0
 23 63  1  0
 24 64  1  0
 24 65  1  0
 27 66  1  0
M  END
> <Name>
Ib

> <pIC50_JEKO-1>
-1.479

> <original_article_set>
test

$$$$
IVa
  SciTegic08162113593D

 67 70  0  0  1  0            999 V2000
   -1.9465   -2.3424   -1.0590 C   0  0
    0.9870   -2.8281   -2.0228 C   0  0
   -1.6169    0.6934   -1.5237 C   0  0
    2.0066   -0.2666    0.8182 C   0  0
   -0.3088   -2.8333   -2.8172 C   0  0
   -1.7585    0.5818   -0.0111 C   0  0
    1.6244   -1.4531   -2.0789 C   0  0
    2.3646    1.1168    1.3590 C   0  0
    0.0800    2.0258    0.9528 C   0  0
   -0.6829   -0.3596   -2.1575 C   0  0  2  0  0  0
    0.6446   -0.3530    0.0807 C   0  0  1  0  0  0
   -0.5934    0.1497    2.2889 C   0  0  2  0  0  0
    0.4887    0.9743    3.0650 C   0  0  1  0  0  0
   -1.3282   -1.7895   -2.3198 C   0  0  2  0  0  0
   -0.4325    0.5843    0.7668 C   0  0  2  0  0  0
    1.1793    1.8670    2.0036 C   0  0  1  0  0  0
    0.7464   -0.2960   -1.5019 C   0  0  1  0  0  0
   -2.4750   -1.7425   -3.3579 C   0  0
    1.6791    3.2311    2.4936 C   0  0
    1.4631    0.9920   -1.9938 C   0  0
   -5.4803   -3.0723   -0.4519 C   0  0
   -2.0163    0.2614    2.8555 C   0  0
   -4.0091   -2.9896   -0.1048 C   0  0
   -0.1047    1.7864    4.1595 N   0  3
   -1.3123   -2.6233   -0.0510 O   0  0
   -2.0005   -0.2192    4.1839 O   0  0
   -3.2929   -2.4720   -1.2304 O   0  0
    0.8245   -3.1446   -0.9883 H   0  0
    1.6750   -3.5608   -2.4616 H   0  0
   -2.6131    0.6466   -1.9754 H   0  0
   -1.2512    1.6981   -1.7661 H   0  0
    2.8398   -0.6284    0.2123 H   0  0
    1.9722   -0.9611    1.6687 H   0  0
   -0.0716   -2.6418   -3.8726 H   0  0
   -0.7394   -3.8428   -2.7782 H   0  0
   -2.3968    1.4086    0.3268 H   0  0
   -2.3211   -0.3223    0.2227 H   0  0
    2.6042   -1.4974   -1.5955 H   0  0
    1.8440   -1.2438   -3.1361 H   0  0
    3.1746    1.0033    2.0915 H   0  0
    2.7800    1.7243    0.5460 H   0  0
    0.4459    2.4995    0.0446 H   0  0
   -0.7205    2.6750    1.3338 H   0  0
   -0.5386   -0.0204   -3.1961 H   0  0
    0.2948   -1.3727    0.2836 H   0  0
   -0.3341   -0.9130    2.3865 H   0  0
    1.2023    0.3096    3.5642 H   0  0
   -2.0868   -1.3511   -4.2890 H   0  0
   -3.2596   -1.0992   -2.9819 H   0  0
   -2.8539   -2.7454   -3.5047 H   0  0
    0.8577    3.7758    2.9516 H   0  0
    2.0652    3.8001    1.6520 H   0  0
    2.4695    3.0868    3.2254 H   0  0
    0.9131    1.8489   -1.6336 H   0  0
    1.4813    0.9825   -3.0737 H   0  0
    2.4686    0.9963   -1.5995 H   0  0
   -5.8799   -2.0839   -0.6952 H   0  0
   -5.6383   -3.7379   -1.3069 H   0  0
   -6.0514   -3.4880    0.3849 H   0  0
   -2.6931   -0.3407    2.2554 H   0  0
   -2.3295    1.3019    2.8454 H   0  0
   -3.6157   -3.9814    0.1375 H   0  0
   -3.8529   -2.3237    0.7491 H   0  0
   -0.0044    1.3107    5.0613 H   0  0
   -1.1032    1.9462    3.9932 H   0  0
    0.3569    2.6986    4.2273 H   0  0
   -2.9073   -0.1425    4.5294 H   0  0
  1 14  1  6
  1 25  2  0
  1 27  1  0
  2  5  1  0
  2  7  1  0
  3  6  1  0
  3 10  1  0
  4  8  1  0
  4 11  1  0
  5 14  1  0
  6 15  1  6
  7 17  1  0
  8 16  1  0
  9 15  1  0
  9 16  1  0
 10 14  1  0
 10 17  1  0
 11 15  1  0
 11 17  1  0
 12 13  1  0
 12 15  1  0
 12 22  1  0
 13 16  1  0
 13 24  1  0
 14 18  1  0
 16 19  1  1
 17 20  1  6
 21 23  1  0
 22 26  1  0
 23 27  1  0
  2 28  1  0
  2 29  1  0
  3 30  1  0
  3 31  1  0
  4 32  1  0
  4 33  1  0
  5 34  1  0
  5 35  1  0
  6 36  1  0
  6 37  1  0
  7 38  1  0
  7 39  1  0
  8 40  1  0
  8 41  1  0
  9 42  1  0
  9 43  1  0
 10 44  1  1
 11 45  1  1
 12 46  1  6
 13 47  1  6
 18 48  1  0
 18 49  1  0
 18 50  1  0
 19 51  1  0
 19 52  1  0
 19 53  1  0
 20 54  1  0
 20 55  1  0
 20 56  1  0
 21 57  1  0
 21 58  1  0
 21 59  1  0
 22 60  1  0
 22 61  1  0
 23 62  1  0
 23 63  1  0
 24 64  1  0
 24 65  1  0
 24 66  1  0
 26 67  1  0
M  CHG  1  24   1
M  END
> <Name>
IVa

> <pIC50_JEKO-1>
-0.393

> <original_article_set>
training

$$$$
IId
  SciTegic08162113593D

 82 86  0  0  1  0            999 V2000
    8.9970    1.9879   -1.5371 C   0  0
    0.5254    4.2950   -6.1110 C   0  0
   -2.6022    0.5908   -8.5977 C   0  0
   -2.0784    1.6983   -9.5077 C   0  0
   -2.7511    1.0694   -7.1563 C   0  0
    8.9840    4.6262   -3.2283 C   0  0
    7.1593    1.6531   -4.9146 C   0  0
    4.4742    4.9340   -3.7729 C   0  0
   -0.7757    2.2946   -8.9772 C   0  0
   -1.4490    1.6644   -6.6230 C   0  0
    9.6501    3.2978   -3.5579 C   0  0
    5.6908    1.5436   -5.2913 C   0  0
    7.5412    4.6757   -3.7233 C   0  0
    4.4813    5.7259   -5.0840 C   0  0
    3.4533    2.7157   -5.5086 C   0  0
    5.3846    3.8123   -6.3930 C   0  0
    7.3518    2.1235   -3.4562 C   0  0  1  0  0  0
    5.1803    3.5526   -3.8311 C   0  0  1  0  0  0
   -0.9330    2.7842   -7.5333 C   0  0
    3.0270    3.9609   -6.3101 C   0  0  2  0  0  0
    8.8698    2.0775   -3.0401 C   0  0  2  0  0  0
    4.9807    2.8894   -5.2317 C   0  0  2  0  0  0
    4.2771    4.8676   -6.3510 C   0  0  1  0  0  0
    6.6472    3.5217   -3.2040 C   0  0  2  0  0  0
    9.5945    0.8007   -3.5202 C   0  0
    4.2978    5.7592   -7.5936 C   0  0
    6.4549    3.7186   -1.6658 C   0  0
    7.5297   -0.5341    0.6710 C   0  0
    8.3402    0.6985    0.3310 C   0  0
    0.3485    3.2793   -7.0343 N   0  0
    1.8448    4.5907   -5.7903 N   0  0
    9.6321    2.7805   -0.8548 O   0  0
    8.3039    0.9044   -1.0848 O   0  0
   -0.7096    5.1679   -5.3759 S   0  0
   -3.5693    0.2345   -8.9697 H   0  0
   -1.9133   -0.2624   -8.6288 H   0  0
   -1.9177    1.3012  -10.5163 H   0  0
   -2.8337    2.4894   -9.5918 H   0  0
   -3.5455    1.8240   -7.1025 H   0  0
   -3.0614    0.2327   -6.5204 H   0  0
    9.0323    4.8195   -2.1516 H   0  0
    9.5511    5.4363   -3.7032 H   0  0
    7.5821    0.6523   -5.0503 H   0  0
    7.6869    2.3144   -5.6104 H   0  0
    4.8621    5.5726   -2.9751 H   0  0
    3.4262    4.7590   -3.4948 H   0  0
    0.0151    1.5353   -9.0318 H   0  0
   -0.4710    3.1249   -9.6255 H   0  0
   -1.6187    2.0498   -5.6104 H   0  0
   -0.6968    0.8687   -6.5438 H   0  0
    9.7625    3.2275   -4.6477 H   0  0
   10.6680    3.3069   -3.1465 H   0  0
    5.6121    1.1145   -6.2983 H   0  0
    5.1975    0.8315   -4.6166 H   0  0
    7.1218    5.6469   -3.4375 H   0  0
    7.5833    4.6673   -4.8121 H   0  0
    3.7154    6.5097   -5.0262 H   0  0
    5.4403    6.2543   -5.1644 H   0  0
    2.8777    2.5865   -4.5849 H   0  0
    3.2625    1.8234   -6.1189 H   0  0
    6.3797    4.2451   -6.3108 H   0  0
    5.3627    3.2670   -7.3472 H   0  0
    6.8225    1.3851   -2.8342 H   0  0
    4.6026    2.9137   -3.1425 H   0  0
   -1.6168    3.6281   -7.5030 H   0  0
    2.7642    3.6371   -7.3255 H   0  0
    9.5624    0.7637   -4.6022 H   0  0
    9.0934   -0.0652   -3.1054 H   0  0
   10.6227    0.8312   -3.1812 H   0  0
    4.1537    5.1509   -8.4841 H   0  0
    5.2550    6.2721   -7.6611 H   0  0
    3.4999    6.4961   -7.5298 H   0  0
    5.8335    2.9174   -1.3019 H   0  0
    5.9812    4.6732   -1.5082 H   0  0
    7.4268    3.6913   -1.2018 H   0  0
    6.4875   -0.4131    0.3626 H   0  0
    7.9447   -1.4178    0.1753 H   0  0
    7.5589   -0.7301    1.7480 H   0  0
    9.3814    0.5709    0.6420 H   0  0
    7.9237    1.5806    0.8263 H   0  0
    1.1722    2.8246   -7.4117 H   0  0
    1.9742    5.3406   -5.1089 H   0  0
  1 21  1  0
  1 32  2  0
  1 33  1  0
  2 30  1  0
  2 31  1  0
  2 34  2  0
  3  4  1  0
  3  5  1  0
  4  9  1  0
  5 10  1  0
  6 11  1  0
  6 13  1  0
  7 12  1  0
  7 17  1  0
  8 14  1  0
  8 18  1  0
  9 19  1  0
 10 19  1  0
 11 21  1  0
 12 22  1  0
 13 24  1  0
 14 23  1  0
 15 20  1  0
 15 22  1  0
 16 22  1  6
 16 23  1  0
 17 21  1  0
 17 24  1  0
 18 22  1  0
 18 24  1  0
 19 30  1  0
 20 23  1  0
 20 31  1  0
 21 25  1  6
 23 26  1  1
 24 27  1  1
 28 29  1  0
 29 33  1  0
  3 35  1  0
  3 36  1  0
  4 37  1  0
  4 38  1  0
  5 39  1  0
  5 40  1  0
  6 41  1  0
  6 42  1  0
  7 43  1  0
  7 44  1  0
  8 45  1  0
  8 46  1  0
  9 47  1  0
  9 48  1  0
 10 49  1  0
 10 50  1  0
 11 51  1  0
 11 52  1  0
 12 53  1  0
 12 54  1  0
 13 55  1  0
 13 56  1  0
 14 57  1  0
 14 58  1  0
 15 59  1  0
 15 60  1  0
 16 61  1  0
 16 62  1  0
 17 63  1  6
 18 64  1  1
 19 65  1  0
 20 66  1  6
 25 67  1  0
 25 68  1  0
 25 69  1  0
 26 70  1  0
 26 71  1  0
 26 72  1  0
 27 73  1  0
 27 74  1  0
 27 75  1  0
 28 76  1  0
 28 77  1  0
 28 78  1  0
 29 79  1  0
 29 80  1  0
 30 81  1  0
 31 82  1  0
M  END
> <Name>
IId

> <pIC50_JEKO-1>
-1.977

> <original_article_set>
training

$$$$
Io
  SciTegic08162113593D

 80 84  0  0  1  0            999 V2000
   -0.9428    7.4869    6.2699 C   0  0
    0.2233    8.2520    6.2489 C   0  0
   -1.1598    6.5191    5.2891 C   0  0
    1.1724    8.0493    5.2471 C   0  0
   -0.2106    6.3164    4.2873 C   0  0
    0.9555    7.0815    4.2662 C   0  0
    0.9299   -2.8829   -3.3453 C   0  0
   -1.6444    4.8939    2.7064 C   0  0
   -1.7766   -3.1398   -1.5147 C   0  0
    1.6551   -0.5228   -1.3185 C   0  0
   -1.7523    0.5433    1.2798 C   0  0
   -0.4340   -3.8570   -1.5420 C   0  0
    1.2553    0.9454   -1.2311 C   0  0
   -1.8523   -2.0483   -0.4434 C   0  0
   -1.0199    1.0521    2.5242 C   0  0
    1.1373    1.3203    1.2870 C   0  0
    0.4122   -1.4218   -1.4206 C   0  0  1  0  0  0
   -0.8490    0.2595    0.0531 C   0  0  1  0  0  0
   -0.2380    2.7488   -0.0918 C   0  0  2  0  0  0
   -0.2403    3.2413    1.3815 C   0  0  2  0  0  0
    0.7386   -2.8946   -1.8413 C   0  0  2  0  0  0
    0.3504    1.2771   -0.0352 C   0  0  2  0  0  0
    0.1501    2.0143    2.2313 C   0  0  1  0  0  0
   -0.5115   -1.2809   -0.1656 C   0  0  1  0  0  0
    2.0359   -3.4728   -1.2518 C   0  0
    0.8223    2.4223    3.5450 C   0  0
    0.1247   -1.9234    1.0890 C   0  0
   -1.5072   -1.8907   -5.8880 C   0  0
    0.5344    3.7480   -0.9605 C   0  0
   -0.1720   -2.3876   -5.3762 C   0  0
   -0.4665    5.3228    3.3073 N   0  0
   -1.4722    3.8718    1.7710 N   0  0
    1.9642   -3.2171   -3.9071 O   0  0
   -0.1139    5.0014   -0.8775 O   0  0
   -0.2140   -2.4485   -3.9470 O   0  0
   -3.2037    5.4774    2.9301 S   0  0
    2.2785    6.8505    2.9246 Br  0  0
   -1.6818    7.6450    7.0500 H   0  0
    0.3919    9.0053    7.0129 H   0  0
   -2.0729    5.9297    5.3175 H   0  0
    2.0749    8.6553    5.2475 H   0  0
   -1.9536   -2.6807   -2.4984 H   0  0
   -2.5873   -3.8690   -1.3866 H   0  0
    2.2882   -0.6428   -2.2099 H   0  0
    2.2915   -0.7958   -0.4666 H   0  0
   -2.3642   -0.3183    1.5540 H   0  0
   -2.4782    1.3122    0.9873 H   0  0
   -0.2752   -4.3701   -0.5940 H   0  0
   -0.4795   -4.6303   -2.3110 H   0  0
    2.1678    1.5510   -1.2069 H   0  0
    0.7343    1.2015   -2.1612 H   0  0
   -2.6265   -1.3246   -0.7485 H   0  0
   -2.2282   -2.5128    0.4805 H   0  0
   -1.7491    1.5288    3.1911 H   0  0
   -0.6358    0.1925    3.0860 H   0  0
    1.4502    0.3480    1.6629 H   0  0
    2.0502    1.9208    1.1751 H   0  0
   -0.1707   -1.0302   -2.2583 H   0  0
   -1.4876    0.5012   -0.8146 H   0  0
   -1.2601    2.7203   -0.4907 H   0  0
    0.5297    4.0207    1.5072 H   0  0
    1.9583   -3.5064   -0.1686 H   0  0
    2.8748   -2.8431   -1.5351 H   0  0
    2.1917   -4.4776   -1.6349 H   0  0
    1.6468    3.1005    3.3381 H   0  0
    1.2022    1.5379    4.0508 H   0  0
    0.0987    2.9206    4.1859 H   0  0
    1.0555   -1.4161    1.3102 H   0  0
    0.3124   -2.9713    0.8905 H   0  0
   -0.5599   -1.8210    1.9219 H   0  0
   -2.3147   -2.5657   -5.5911 H   0  0
   -1.7217   -0.8900   -5.4985 H   0  0
   -1.4966   -1.8115   -6.9801 H   0  0
    0.5383    3.4067   -1.9931 H   0  0
    1.5539    3.8391   -0.5932 H   0  0
    0.6311   -1.7080   -5.6766 H   0  0
    0.0404   -3.3877   -5.7656 H   0  0
    0.3806    4.8977    2.9403 H   0  0
   -2.3281    3.5319    1.3306 H   0  0
    0.3883    5.6225   -1.4334 H   0  0
  1  2  2  0
  1  3  1  0
  2  4  1  0
  3  5  2  0
  4  6  2  0
  5  6  1  0
  5 31  1  0
  6 37  1  0
  7 21  1  0
  7 33  2  0
  7 35  1  0
  8 31  1  0
  8 32  1  0
  8 36  2  0
  9 12  1  0
  9 14  1  0
 10 13  1  0
 10 17  1  0
 11 15  1  0
 11 18  1  0
 12 21  1  0
 13 22  1  6
 14 24  1  0
 15 23  1  0
 16 22  1  0
 16 23  1  0
 17 21  1  0
 17 24  1  0
 18 22  1  0
 18 24  1  0
 19 20  1  0
 19 22  1  0
 19 29  1  0
 20 23  1  0
 20 32  1  0
 21 25  1  1
 23 26  1  1
 24 27  1  6
 28 30  1  0
 29 34  1  0
 30 35  1  0
  1 38  1  0
  2 39  1  0
  3 40  1  0
  4 41  1  0
  9 42  1  0
  9 43  1  0
 10 44  1  0
 10 45  1  0
 11 46  1  0
 11 47  1  0
 12 48  1  0
 12 49  1  0
 13 50  1  0
 13 51  1  0
 14 52  1  0
 14 53  1  0
 15 54  1  0
 15 55  1  0
 16 56  1  0
 16 57  1  0
 17 58  1  1
 18 59  1  1
 19 60  1  6
 20 61  1  1
 25 62  1  0
 25 63  1  0
 25 64  1  0
 26 65  1  0
 26 66  1  0
 26 67  1  0
 27 68  1  0
 27 69  1  0
 27 70  1  0
 28 71  1  0
 28 72  1  0
 28 73  1  0
 29 74  1  0
 29 75  1  0
 30 76  1  0
 30 77  1  0
 31 78  1  0
 32 79  1  0
 34 80  1  0
M  END
> <Name>
Io

> <pIC50_JEKO-1>
-1.148

> <original_article_set>
training

$$$$
Im
  SciTegic08162113593D

 80 84  0  0  1  0            999 V2000
   -3.7133    4.1816   -7.7108 C   0  0
   -3.2681    3.3859   -6.6552 C   0  0
   -4.6061    5.2257   -7.4689 C   0  0
   -4.6087    4.6782   -5.1157 C   0  0
   -3.7158    3.6341   -5.3577 C   0  0
   -5.0538    5.4739   -6.1713 C   0  0
   -0.0020   -3.0010    1.1331 C   0  0
   -3.8919    2.3804   -3.1271 C   0  0
   -0.4285   -0.8921    3.4032 C   0  0
    2.0752   -1.1610   -0.2152 C   0  0
   -1.3014    1.6139    0.4719 C   0  0
    0.5330   -2.0673    3.3375 C   0  0
    0.9251   -1.1785   -1.2141 C   0  0
    0.2585    0.3685    2.9142 C   0  0
   -1.0035    2.7030   -0.5587 C   0  0
    0.5424    1.2435   -1.8531 C   0  0
    1.6429   -0.9987    1.2583 C   0  0  2  0  0  0
   -0.4021    0.3509    0.3864 C   0  0  1  0  0  0
   -1.3828   -0.1991   -1.9252 C   0  0  2  0  0  0
   -1.7245    1.1910   -2.5343 C   0  0  2  0  0  0
    1.0885   -2.3178    1.9215 C   0  0  2  0  0  0
   -0.0339    0.0174   -1.1164 C   0  0  2  0  0  0
   -0.6725    2.1662   -1.9639 C   0  0  1  0  0  0
    0.7800    0.3050    1.4425 C   0  0  1  0  0  0
    2.2208   -3.3643    2.0556 C   0  0
   -0.4042    3.3366   -2.9135 C   0  0
    1.7136    1.5417    1.3258 C   0  0
    0.1325   -6.2964   -0.4516 C   0  0
   -1.3348   -1.2422   -3.0483 C   0  0
   -0.5025   -4.9800   -0.0573 C   0  0
   -3.2630    2.8234   -4.2850 N   0  0
   -3.0896    1.5843   -2.3072 N   0  0
   -1.1043   -2.5130    0.9233 O   0  0
   -2.6059   -1.2878   -3.6648 O   0  0
    0.4380   -4.2193    0.7075 O   0  0
   -5.4763    2.6416   -2.6338 S   0  0
   -6.1554    6.7621   -5.8727 Cl  0  0
   -3.3646    3.9881   -8.7212 H   0  0
   -2.5723    2.5749   -6.8560 H   0  0
   -4.9439    5.8373   -8.3014 H   0  0
   -4.9555    4.8692   -4.1025 H   0  0
   -1.3416   -1.0891    2.8338 H   0  0
   -0.7427   -0.7488    4.4442 H   0  0
    2.6686   -2.0718   -0.3451 H   0  0
    2.7579   -0.3468   -0.4855 H   0  0
   -1.2969    2.0682    1.4648 H   0  0
   -2.3416    1.2921    0.3300 H   0  0
    1.3643   -1.8767    4.0300 H   0  0
    0.0190   -2.9615    3.7146 H   0  0
    1.3579   -1.2347   -2.2214 H   0  0
    0.3669   -2.1081   -1.0965 H   0  0
   -0.4102    1.2195    3.0701 H   0  0
    1.1076    0.5536    3.5883 H   0  0
   -1.8596    3.3882   -0.6031 H   0  0
   -0.1620    3.3093   -0.2012 H   0  0
    1.3805    1.7261   -1.3558 H   0  0
    0.9008    0.9615   -2.8530 H   0  0
    2.5784   -0.8045    1.8075 H   0  0
   -1.0622   -0.4676    0.6988 H   0  0
   -2.1755   -0.5241   -1.2390 H   0  0
   -1.6194    1.1478   -3.6263 H   0  0
    3.0358   -2.9263    2.6166 H   0  0
    2.5575   -3.6426    1.0657 H   0  0
    1.8346   -4.2313    2.5752 H   0  0
   -0.1706    2.9565   -3.9053 H   0  0
    0.4360    3.9207   -2.5454 H   0  0
   -1.2859    3.9709   -2.9700 H   0  0
    2.1200    1.5709    0.3256 H   0  0
    2.5066    1.4419    2.0522 H   0  0
    1.1315    2.4300    1.5224 H   0  0
    1.0256   -6.1318   -1.0608 H   0  0
    0.4118   -6.8718    0.4371 H   0  0
   -0.5741   -6.9108   -1.0195 H   0  0
   -1.0963   -2.2171   -2.6298 H   0  0
   -0.5836   -0.9553   -3.7801 H   0  0
   -1.3951   -5.1517    0.5517 H   0  0
   -0.7802   -4.4060   -0.9464 H   0  0
   -2.3276    2.4539   -4.4321 H   0  0
   -3.5289    1.2626   -1.4435 H   0  0
   -2.5585   -1.9530   -4.3736 H   0  0
  1  2  1  0
  1  3  2  0
  2  5  2  0
  3  6  1  0
  4  5  1  0
  4  6  2  0
  5 31  1  0
  6 37  1  0
  7 21  1  6
  7 33  2  0
  7 35  1  0
  8 31  1  0
  8 32  1  0
  8 36  2  0
  9 12  1  0
  9 14  1  0
 10 13  1  0
 10 17  1  0
 11 15  1  0
 11 18  1  0
 12 21  1  0
 13 22  1  6
 14 24  1  0
 15 23  1  0
 16 22  1  0
 16 23  1  0
 17 21  1  0
 17 24  1  0
 18 22  1  0
 18 24  1  0
 19 20  1  0
 19 22  1  0
 19 29  1  0
 20 23  1  0
 20 32  1  0
 21 25  1  0
 23 26  1  6
 24 27  1  6
 28 30  1  0
 29 34  1  0
 30 35  1  0
  1 38  1  0
  2 39  1  0
  3 40  1  0
  4 41  1  0
  9 42  1  0
  9 43  1  0
 10 44  1  0
 10 45  1  0
 11 46  1  0
 11 47  1  0
 12 48  1  0
 12 49  1  0
 13 50  1  0
 13 51  1  0
 14 52  1  0
 14 53  1  0
 15 54  1  0
 15 55  1  0
 16 56  1  0
 16 57  1  0
 17 58  1  1
 18 59  1  1
 19 60  1  1
 20 61  1  6
 25 62  1  0
 25 63  1  0
 25 64  1  0
 26 65  1  0
 26 66  1  0
 26 67  1  0
 27 68  1  0
 27 69  1  0
 27 70  1  0
 28 71  1  0
 28 72  1  0
 28 73  1  0
 29 74  1  0
 29 75  1  0
 30 76  1  0
 30 77  1  0
 31 78  1  0
 32 79  1  0
 34 80  1  0
M  END
> <Name>
Im

> <pIC50_JEKO-1>
-1.311

> <original_article_set>
training

$$$$
Il
  SciTegic08162113593D

 80 84  0  0  1  0            999 V2000
   -1.3318   -0.6645    9.6366 C   0  0
   -0.8975   -1.9226   10.0538 C   0  0
   -1.0026   -0.1998    8.3632 C   0  0
   -0.1338   -2.7161    9.1977 C   0  0
   -0.2389   -0.9933    7.5071 C   0  0
    0.1955   -2.2514    7.9243 C   0  0
    0.7656   -1.3392   -4.2096 C   0  0
    0.3517    0.7951    5.7660 C   0  0
   -2.3667    0.1910   -2.5747 C   0  0
    0.9386   -1.3109   -1.3701 C   0  0
   -0.6683    1.6820    1.3806 C   0  0
   -1.4907   -0.7335   -3.4105 C   0  0
    1.6998   -1.0706   -0.0759 C   0  0
   -1.7998    0.4161   -1.1734 C   0  0
   -1.4770    0.7529    2.2878 C   0  0
   -0.2386   -1.2733    1.5411 C   0  0
    0.5731    0.0169   -2.0772 C   0  0  1  0  0  0
    0.2546    0.9657    0.3559 C   0  0  1  0  0  0
    1.6538    0.0265    2.2871 C   0  0  2  0  0  0
    0.6443   -0.1986    3.4476 C   0  0  2  0  0  0
   -0.0307   -0.2596   -3.5065 C   0  0  1  0  0  0
    0.8551   -0.3504    0.9712 C   0  0  2  0  0  0
   -0.7112   -0.4953    2.7702 C   0  0  1  0  0  0
   -0.3297    0.9102   -1.1332 C   0  0  2  0  0  0
    0.0916    0.9379   -4.4711 C   0  0
   -1.6197   -1.3460    3.6611 C   0  0
   -0.2944    2.3836   -1.6484 C   0  0
    4.3397   -1.3105   -4.9930 C   0  0
    2.9284   -0.7820    2.5493 C   0  0
    2.9392   -1.8842   -4.9594 C   0  0
    0.0781   -0.4904    6.2189 N   0  0
    0.6219    0.8765    4.3987 N   0  0
    0.2870   -2.3903   -4.6137 O   0  0
    3.4959   -0.3347    3.7645 O   0  0
    2.0687   -0.9511   -4.3117 O   0  0
    0.4420    2.2181    6.6541 S   0  0
    1.1460   -3.2656    6.8980 Cl  0  0
   -1.9260   -0.0469   10.3037 H   0  0
   -1.1544   -2.2842   11.0451 H   0  0
   -1.3477    0.7826    8.0503 H   0  0
    0.1966   -3.6942    9.5381 H   0  0
   -2.5141    1.1469   -3.0870 H   0  0
   -3.3657   -0.2533   -2.4847 H   0  0
    1.5980   -1.9151   -2.0023 H   0  0
    0.0466   -1.9191   -1.1877 H   0  0
   -1.3554    2.3890    0.9081 H   0  0
   -0.0343    2.3088    2.0218 H   0  0
   -1.5300   -1.7413   -2.9758 H   0  0
   -1.9263   -0.8301   -4.4138 H   0  0
    2.0419   -2.0409    0.3038 H   0  0
    2.6008   -0.4853   -0.2993 H   0  0
   -2.4571    1.1250   -0.6571 H   0  0
   -1.8974   -0.5311   -0.6435 H   0  0
   -1.8449    1.3305    3.1453 H   0  0
   -2.3737    0.4304    1.7426 H   0  0
   -1.0515   -1.4986    0.8532 H   0  0
    0.1896   -2.2411    1.8378 H   0  0
    1.5268    0.5453   -2.2256 H   0  0
    1.1273    1.6319    0.2488 H   0  0
    1.9630    1.0795    2.2442 H   0  0
    0.9539   -1.0870    4.0296 H   0  0
   -0.4510    1.7808   -4.0595 H   0  0
   -0.3283    0.6629   -5.4315 H   0  0
    1.1384    1.1940   -4.5862 H   0  0
   -1.0785   -2.2261    4.0008 H   0  0
   -2.4958   -1.6583    3.0975 H   0  0
   -1.9357   -0.7633    4.5234 H   0  0
    0.7276    2.7245   -1.6195 H   0  0
   -0.9150    2.9803   -1.0001 H   0  0
   -0.6731    2.3950   -2.6574 H   0  0
    4.3624   -0.3687   -5.5483 H   0  0
    4.7079   -1.1312   -3.9776 H   0  0
    5.0340   -2.0148   -5.4635 H   0  0
    3.6346   -0.6243    1.7371 H   0  0
    2.6814   -1.8383    2.6292 H   0  0
    2.9235   -2.8259   -4.4027 H   0  0
    2.5726   -2.0620   -5.9748 H   0  0
    0.1827   -1.2215    5.5205 H   0  0
    0.8094    1.8151    4.0439 H   0  0
    4.3026   -0.8577    3.9149 H   0  0
  1  2  2  0
  1  3  1  0
  2  4  1  0
  3  5  2  0
  4  6  2  0
  5  6  1  0
  5 31  1  0
  6 37  1  0
  7 21  1  0
  7 33  2  0
  7 35  1  0
  8 31  1  0
  8 32  1  0
  8 36  2  0
  9 12  1  0
  9 14  1  0
 10 13  1  0
 10 17  1  0
 11 15  1  0
 11 18  1  0
 12 21  1  0
 13 22  1  6
 14 24  1  0
 15 23  1  0
 16 22  1  0
 16 23  1  0
 17 21  1  0
 17 24  1  0
 18 22  1  0
 18 24  1  0
 19 20  1  0
 19 22  1  0
 19 29  1  0
 20 23  1  0
 20 32  1  0
 21 25  1  6
 23 26  1  6
 24 27  1  1
 28 30  1  0
 29 34  1  0
 30 35  1  0
  1 38  1  0
  2 39  1  0
  3 40  1  0
  4 41  1  0
  9 42  1  0
  9 43  1  0
 10 44  1  0
 10 45  1  0
 11 46  1  0
 11 47  1  0
 12 48  1  0
 12 49  1  0
 13 50  1  0
 13 51  1  0
 14 52  1  0
 14 53  1  0
 15 54  1  0
 15 55  1  0
 16 56  1  0
 16 57  1  0
 17 58  1  6
 18 59  1  6
 19 60  1  1
 20 61  1  6
 25 62  1  0
 25 63  1  0
 25 64  1  0
 26 65  1  0
 26 66  1  0
 26 67  1  0
 27 68  1  0
 27 69  1  0
 27 70  1  0
 28 71  1  0
 28 72  1  0
 28 73  1  0
 29 74  1  0
 29 75  1  0
 30 76  1  0
 30 77  1  0
 31 78  1  0
 32 79  1  0
 34 80  1  0
M  END
> <Name>
Il

> <pIC50_JEKO-1>
-1.61

> <original_article_set>
training

$$$$
Iv
  SciTegic08162113593D

 82 86  0  0  1  0            999 V2000
   -7.3812   -6.3378    0.1089 C   0  0
   -6.4467   -5.3329   -0.1407 C   0  0
   -7.0084   -7.6781    0.0062 C   0  0
   -4.7666   -7.0082   -0.5959 C   0  0
   -5.1394   -5.6680   -0.4931 C   0  0
   -5.7011   -8.0132   -0.3463 C   0  0
    1.6305    4.1915   -0.2031 C   0  0
   -3.1300   -4.5655   -1.6443 C   0  0
    3.7566    1.0358    0.0273 C   0  0
   -0.5000    2.1195    0.5367 C   0  0
    0.3952   -2.1043   -0.4719 C   0  0
    3.3554    2.4887   -0.1833 C   0  0
   -1.5399    1.3420   -0.2611 C   0  0
    2.6721    0.0609   -0.4362 C   0  0
   -0.4815   -2.8501    0.5372 C   0  0
   -1.8431   -0.8294    1.0301 C   0  0
    0.9102    1.8112    0.0064 C   0  0  1  0  0  0
    0.1753   -0.5710   -0.5461 C   0  0  1  0  0  0
   -2.3224   -0.8426   -1.2991 C   0  0  1  0  0  0
   -2.6638   -2.2437   -0.7191 C   0  0  2  0  0  0
    1.9880    2.8589    0.4281 C   0  0  2  0  0  0
   -1.3258   -0.1830   -0.2702 C   0  0  2  0  0  0
   -1.9226   -2.3102    0.6410 C   0  0  1  0  0  0
    1.2756    0.2989    0.2206 C   0  0  1  0  0  0
    2.1002    3.1138    1.9370 C   0  0
   -2.7042   -3.1225    1.6765 C   0  0
    1.3873   -0.1061    1.7069 C   0  0
    1.1812    4.9159   -3.7615 C   0  0
   -1.9249   -0.7932   -2.7728 C   0  0
    1.2240    5.2372   -2.2828 C   0  0
   -4.1895   -4.6454   -0.7479 N   0  0
   -2.4181   -3.3650   -1.5847 N   0  0
   -5.3212   -9.3778   -0.4491 N   0  3
   -6.1769  -10.2661   -0.2188 O   0  5
    1.4425    5.2213    0.4304 O   0  0
   -4.1401   -9.6577   -0.7671 O   0  0
   -2.9956   -1.3050   -3.5441 O   0  0
    1.5561    4.0493   -1.5571 O   0  0
   -2.6473   -5.6913   -2.7937 S   0  0
   -8.3989   -6.0770    0.3844 H   0  0
   -6.7492   -4.2920   -0.0585 H   0  0
   -7.7470   -8.4510    0.2036 H   0  0
   -3.7463   -7.2683   -0.8719 H   0  0
    4.6755    0.8359   -0.5376 H   0  0
    4.0119    0.8661    1.0779 H   0  0
   -0.7266    3.1865    0.4282 H   0  0
   -0.5957    1.8967    1.6031 H   0  0
    1.4415   -2.3630   -0.2879 H   0  0
    0.1884   -2.5230   -1.4643 H   0  0
    4.1422    3.1433    0.2143 H   0  0
    3.3369    2.6784   -1.2663 H   0  0
   -2.5368    1.5863    0.1276 H   0  0
   -1.5238    1.7180   -1.2922 H   0  0
    2.5828    0.1451   -1.5274 H   0  0
    3.0288   -0.9552   -0.2345 H   0  0
   -0.4873   -3.9166    0.2786 H   0  0
   -0.0109   -2.7979    1.5265 H   0  0
   -1.2132   -0.6643    1.9029 H   0  0
   -2.8399   -0.4455    1.2880 H   0  0
    0.8361    1.9299   -1.0885 H   0  0
    0.3546   -0.3129   -1.6003 H   0  0
   -3.2620   -0.2696   -1.2437 H   0  0
   -3.7475   -2.2645   -0.5419 H   0  0
    2.3562    2.1870    2.4426 H   0  0
    1.1497    3.4812    2.3136 H   0  0
    2.8739    3.8535    2.1226 H   0  0
   -3.7203   -2.7413    1.7492 H   0  0
   -2.2196   -3.0410    2.6468 H   0  0
   -2.7330   -4.1673    1.3757 H   0  0
    0.4291    0.0498    2.1870 H   0  0
    2.1434    0.5063    2.1825 H   0  0
    1.6656   -1.1511    1.7669 H   0  0
    2.1523    4.5539   -4.1105 H   0  0
    0.4240    4.1526   -3.9689 H   0  0
    0.9058    5.8031   -4.3413 H   0  0
   -1.0371   -1.4029   -2.9375 H   0  0
   -1.7259    0.2362   -3.0687 H   0  0
    0.2498    5.5986   -1.9403 H   0  0
    1.9815    5.9993   -2.0772 H   0  0
   -4.3647   -3.7974   -0.2156 H   0  0
   -1.6255   -3.2949   -2.2252 H   0  0
   -2.7215   -1.2643   -4.4764 H   0  0
  1  2  1  0
  1  3  2  0
  2  5  2  0
  3  6  1  0
  4  5  1  0
  4  6  2  0
  5 31  1  0
  6 33  1  0
  7 21  1  0
  7 35  2  0
  7 38  1  0
  8 31  1  0
  8 32  1  0
  8 39  2  0
  9 12  1  0
  9 14  1  0
 10 13  1  0
 10 17  1  0
 11 15  1  0
 11 18  1  0
 12 21  1  0
 13 22  1  6
 14 24  1  0
 15 23  1  0
 16 22  1  0
 16 23  1  0
 17 21  1  0
 17 24  1  0
 18 22  1  0
 18 24  1  0
 19 20  1  0
 19 22  1  0
 19 29  1  0
 20 23  1  0
 20 32  1  0
 21 25  1  1
 23 26  1  1
 24 27  1  6
 28 30  1  0
 29 37  1  0
 30 38  1  0
 33 34  1  0
 33 36  2  0
  1 40  1  0
  2 41  1  0
  3 42  1  0
  4 43  1  0
  9 44  1  0
  9 45  1  0
 10 46  1  0
 10 47  1  0
 11 48  1  0
 11 49  1  0
 12 50  1  0
 12 51  1  0
 13 52  1  0
 13 53  1  0
 14 54  1  0
 14 55  1  0
 15 56  1  0
 15 57  1  0
 16 58  1  0
 16 59  1  0
 17 60  1  1
 18 61  1  1
 19 62  1  6
 20 63  1  6
 25 64  1  0
 25 65  1  0
 25 66  1  0
 26 67  1  0
 26 68  1  0
 26 69  1  0
 27 70  1  0
 27 71  1  0
 27 72  1  0
 28 73  1  0
 28 74  1  0
 28 75  1  0
 29 76  1  0
 29 77  1  0
 30 78  1  0
 30 79  1  0
 31 80  1  0
 32 81  1  0
 37 82  1  0
M  CHG  2  33   1  34  -1
M  END
> <Name>
Iv

> <pIC50_JEKO-1>
-0.721

> <original_article_set>
training

$$$$
IIb
  SciTegic08162113593D

 62 65  0  0  1  0            999 V2000
    4.1256   -3.8675    0.7982 C   0  0
   -3.4184    1.4983   -1.3062 C   0  0
   -1.7291    3.3753    0.5078 C   0  0
   -1.5821   -0.3948    1.5183 C   0  0
    2.2258    0.8168   -0.1895 C   0  0
   -2.9511    2.5575    0.8987 C   0  0
   -0.5137   -1.4825    1.4279 C   0  0
   -0.4489    2.5772    0.7076 C   0  0
    2.5813   -0.0854   -1.3769 C   0  0
    2.0002   -1.7371    1.2952 C   0  0
    0.8026   -1.7634   -0.7637 C   0  0
   -1.7249    0.3883    0.2025 C   0  0  1  0  0  0
    0.8917    0.4434    0.4982 C   0  0  2  0  0  0
    2.9917   -2.0573    0.1604 C   0  0  2  0  0  0
   -3.0539    1.2273    0.1363 C   0  0  2  0  0  0
    0.7400   -1.1040    0.6235 C   0  0  1  0  0  0
    2.2843   -1.5871   -1.1312 C   0  0  2  0  0  0
   -0.3988    1.2165   -0.0579 C   0  0  2  0  0  0
   -4.2856    0.4595    0.6623 C   0  0
    2.6562   -2.3807   -2.3863 C   0  0
   -0.2890    1.5403   -1.5708 C   0  0
   -3.9134   -0.9582   -3.9725 C   0  0
   -3.8516    0.4283   -3.3680 C   0  0
    3.2217   -3.5081    0.1438 N   0  0
   -3.5982    2.6166   -1.7690 O   0  0
   -3.5101    0.3181   -1.9826 O   0  0
    5.3468   -4.3896    1.6775 S   0  0
   -1.8138    3.7249   -0.5264 H   0  0
   -1.6890    4.2774    1.1302 H   0  0
   -2.5096   -0.9012    1.7996 H   0  0
   -1.3474    0.2897    2.3422 H   0  0
    3.0305    0.7260    0.5529 H   0  0
    2.2563    1.8713   -0.4820 H   0  0
   -2.9105    2.3607    1.9781 H   0  0
   -3.8478    3.1684    0.7314 H   0  0
   -0.2446   -1.7477    2.4587 H   0  0
   -0.9664   -2.3871    1.0019 H   0  0
    0.4055    3.2019    0.4180 H   0  0
   -0.3417    2.4026    1.7863 H   0  0
    2.0375    0.2502   -2.2671 H   0  0
    3.6457    0.0501   -1.6095 H   0  0
    1.7361   -2.6537    1.8387 H   0  0
    2.4463   -1.0594    2.0321 H   0  0
    0.5421   -2.8286   -0.7044 H   0  0
    0.1307   -1.3182   -1.4983 H   0  0
   -1.7993   -0.3707   -0.5901 H   0  0
    1.0157    0.7877    1.5368 H   0  0
    3.9503   -1.5662    0.3130 H   0  0
   -4.1278    0.2119    1.7050 H   0  0
   -4.4103   -0.4467    0.0821 H   0  0
   -5.1624    1.0875    0.5602 H   0  0
    2.4518   -3.4368   -2.2253 H   0  0
    3.7139   -2.2485   -2.6026 H   0  0
    2.0695   -2.0258   -3.2306 H   0  0
   -0.2528    0.6106   -2.1213 H   0  0
    0.6144    2.1099   -1.7374 H   0  0
   -1.1552    2.1165   -1.8644 H   0  0
   -2.9469   -1.4631   -3.8905 H   0  0
   -4.6732   -1.5652   -3.4692 H   0  0
   -4.1963   -0.9062   -5.0291 H   0  0
   -4.8214    0.9277   -3.4533 H   0  0
   -3.0915    1.0331   -3.8714 H   0  0
  1 24  2  0
  1 27  2  0
  2 15  1  6
  2 25  2  0
  2 26  1  0
  3  6  1  0
  3  8  1  0
  4  7  1  0
  4 12  1  0
  5  9  1  0
  5 13  1  0
  6 15  1  0
  7 16  1  0
  8 18  1  0
  9 17  1  0
 10 14  1  0
 10 16  1  0
 11 16  1  6
 11 17  1  0
 12 15  1  0
 12 18  1  0
 13 16  1  0
 13 18  1  0
 14 17  1  0
 14 24  1  0
 15 19  1  0
 17 20  1  6
 18 21  1  1
 22 23  1  0
 23 26  1  0
  3 28  1  0
  3 29  1  0
  4 30  1  0
  4 31  1  0
  5 32  1  0
  5 33  1  0
  6 34  1  0
  6 35  1  0
  7 36  1  0
  7 37  1  0
  8 38  1  0
  8 39  1  0
  9 40  1  0
  9 41  1  0
 10 42  1  0
 10 43  1  0
 11 44  1  0
 11 45  1  0
 12 46  1  1
 13 47  1  1
 14 48  1  1
 19 49  1  0
 19 50  1  0
 19 51  1  0
 20 52  1  0
 20 53  1  0
 20 54  1  0
 21 55  1  0
 21 56  1  0
 21 57  1  0
 22 58  1  0
 22 59  1  0
 22 60  1  0
 23 61  1  0
 23 62  1  0
M  END
> <Name>
IIb

> <pIC50_JEKO-1>
-1.583

> <original_article_set>
training

$$$$
Ia
  SciTegic08162113593D

 67 70  0  0  1  0            999 V2000
   -1.9987   -2.4116   -0.7115 C   0  0
    0.8972   -2.9489   -1.7621 C   0  0
   -1.7617    0.5579   -1.5053 C   0  0
    1.9953   -0.0884    0.7386 C   0  0
   -0.4345   -3.0616   -2.4859 C   0  0
   -1.8213    0.6101    0.0165 C   0  0
    1.5010   -1.5777   -1.9975 C   0  0
    2.3463    1.3360    1.1730 C   0  0
    0.0521    2.1773    0.6965 C   0  0
   -0.8331   -0.5376   -2.0748 C   0  0  2  0  0  0
    0.6022   -0.2699    0.0767 C   0  0  1  0  0  0
   -0.5214    0.4340    2.2767 C   0  0  2  0  0  0
    0.4118    1.4948    2.9069 C   0  0  2  0  0  0
   -1.4523   -1.9879   -2.0530 C   0  0  2  0  0  0
   -0.4562    0.7179    0.7116 C   0  0  2  0  0  0
    1.1691    2.1505    1.7421 C   0  0  1  0  0  0
    0.6262   -0.3799   -1.5049 C   0  0  1  0  0  0
   -2.6472   -2.0726   -3.0329 C   0  0
    1.6464    3.5620    2.0953 C   0  0
    1.2884    0.8608   -2.1661 C   0  0
   -5.4835   -3.1305    0.1421 C   0  0
   -1.9058    0.5271    2.9268 C   0  0
   -3.9998   -2.9862    0.4061 C   0  0
    1.2962    0.9078    3.9333 N   0  3
   -1.3121   -2.5712    0.2886 O   0  0
   -1.7641    0.2767    4.3110 O   0  0
   -3.3485   -2.5814   -0.8022 O   0  0
    0.7911   -3.1545   -0.6930 H   0  0
    1.5794   -3.7132   -2.1537 H   0  0
   -2.7787    0.4412   -1.8936 H   0  0
   -1.4370    1.5379   -1.8738 H   0  0
    2.8090   -0.4658    0.1155 H   0  0
    2.0252   -0.7308    1.6278 H   0  0
   -0.2520   -2.9810   -3.5662 H   0  0
   -0.8401   -4.0682   -2.3180 H   0  0
   -2.4566    1.4598    0.2988 H   0  0
   -2.3523   -0.2701    0.3804 H   0  0
    2.5033   -1.5528   -1.5612 H   0  0
    1.6654   -1.4814   -3.0806 H   0  0
    3.1663    1.2905    1.9009 H   0  0
    2.7565    1.8698    0.3061 H   0  0
    0.4042    2.5327   -0.2686 H   0  0
   -0.7458    2.8676    1.0047 H   0  0
   -0.7485   -0.3060   -3.1489 H   0  0
    0.2805   -1.2673    0.4014 H   0  0
   -0.1546   -0.5792    2.4841 H   0  0
   -0.1781    2.2516    3.4403 H   0  0
   -2.3117   -1.7777   -4.0184 H   0  0
   -3.4272   -1.4057   -2.6901 H   0  0
   -3.0105   -3.0917   -3.0526 H   0  0
    0.8164    4.1382    2.4972 H   0  0
    2.0262    4.0530    1.2026 H   0  0
    2.4379    3.5043    2.8388 H   0  0
    0.7362    1.7411   -1.8719 H   0  0
    1.2554    0.7358   -3.2383 H   0  0
    2.3111    0.9254   -1.8250 H   0  0
   -5.9156   -2.1810   -0.1859 H   0  0
   -5.6668   -3.8871   -0.6279 H   0  0
   -6.0056   -3.4628    1.0455 H   0  0
   -2.5665   -0.2169    2.4873 H   0  0
   -2.3140    1.5240    2.7764 H   0  0
   -3.5739   -3.9393    0.7338 H   0  0
   -3.8184   -2.2293    1.1750 H   0  0
    0.7565    0.3995    4.6456 H   0  0
    1.8409    1.6340    4.4164 H   0  0
    1.9630    0.2448    3.5174 H   0  0
   -2.6507    0.3397    4.7069 H   0  0
  1 14  1  0
  1 25  2  0
  1 27  1  0
  2  5  1  0
  2  7  1  0
  3  6  1  0
  3 10  1  0
  4  8  1  0
  4 11  1  0
  5 14  1  0
  6 15  1  6
  7 17  1  0
  8 16  1  0
  9 15  1  0
  9 16  1  0
 10 14  1  0
 10 17  1  0
 11 15  1  0
 11 17  1  0
 12 13  1  0
 12 15  1  0
 12 22  1  0
 13 16  1  0
 13 24  1  0
 14 18  1  6
 16 19  1  1
 17 20  1  6
 21 23  1  0
 22 26  1  0
 23 27  1  0
  2 28  1  0
  2 29  1  0
  3 30  1  0
  3 31  1  0
  4 32  1  0
  4 33  1  0
  5 34  1  0
  5 35  1  0
  6 36  1  0
  6 37  1  0
  7 38  1  0
  7 39  1  0
  8 40  1  0
  8 41  1  0
  9 42  1  0
  9 43  1  0
 10 44  1  1
 11 45  1  1
 12 46  1  1
 13 47  1  6
 18 48  1  0
 18 49  1  0
 18 50  1  0
 19 51  1  0
 19 52  1  0
 19 53  1  0
 20 54  1  0
 20 55  1  0
 20 56  1  0
 21 57  1  0
 21 58  1  0
 21 59  1  0
 22 60  1  0
 22 61  1  0
 23 62  1  0
 23 63  1  0
 24 64  1  0
 24 65  1  0
 24 66  1  0
 26 67  1  0
M  CHG  1  24   1
M  END
> <Name>
Ia

> <pIC50_JEKO-1>
-0.549

> <original_article_set>
training

$$$$
Ix
  SciTegic08162113593D

 80 84  0  0  1  0            999 V2000
   -4.6077    4.6700   -5.0796 C   0  0
   -5.0717    5.4865   -6.1109 C   0  0
   -3.7521    4.2312   -7.6985 C   0  0
   -3.7158    3.6341   -5.3577 C   0  0
   -4.6439    5.2671   -7.4203 C   0  0
   -3.2881    3.4147   -6.6671 C   0  0
   -0.0020   -3.0010    1.1331 C   0  0
   -3.8919    2.3804   -3.1271 C   0  0
   -0.4285   -0.8921    3.4032 C   0  0
    2.0752   -1.1610   -0.2152 C   0  0
   -1.3014    1.6139    0.4719 C   0  0
    0.5330   -2.0673    3.3375 C   0  0
    0.9251   -1.1785   -1.2141 C   0  0
    0.2585    0.3685    2.9142 C   0  0
   -1.0035    2.7030   -0.5587 C   0  0
    0.5424    1.2435   -1.8531 C   0  0
    1.6429   -0.9987    1.2583 C   0  0  2  0  0  0
   -0.4021    0.3509    0.3864 C   0  0  1  0  0  0
   -1.3828   -0.1991   -1.9252 C   0  0  2  0  0  0
   -1.7245    1.1910   -2.5343 C   0  0  2  0  0  0
    1.0885   -2.3178    1.9215 C   0  0  2  0  0  0
   -0.0339    0.0174   -1.1164 C   0  0  2  0  0  0
   -0.6725    2.1662   -1.9639 C   0  0  1  0  0  0
    0.7800    0.3050    1.4425 C   0  0  1  0  0  0
    2.2208   -3.3643    2.0556 C   0  0
   -0.4042    3.3366   -2.9135 C   0  0
    1.7136    1.5417    1.3258 C   0  0
    0.1325   -6.2964   -0.4516 C   0  0
   -1.3348   -1.2422   -3.0483 C   0  0
   -0.5025   -4.9800   -0.0573 C   0  0
   -3.2630    2.8234   -4.2850 N   0  0
   -3.0896    1.5843   -2.3072 N   0  0
   -1.1043   -2.5130    0.9233 O   0  0
   -2.6059   -1.2878   -3.6648 O   0  0
    0.4380   -4.2193    0.7075 O   0  0
   -5.4763    2.6416   -2.6338 S   0  0
   -5.2167    6.2755   -8.6920 Cl  0  0
   -2.1831    2.1443   -7.0545 Cl  0  0
   -4.9477    4.8536   -4.0635 H   0  0
   -5.7653    6.2907   -5.8791 H   0  0
   -3.4191    4.0635   -8.7205 H   0  0
   -1.3416   -1.0891    2.8338 H   0  0
   -0.7427   -0.7488    4.4442 H   0  0
    2.6686   -2.0718   -0.3451 H   0  0
    2.7579   -0.3468   -0.4855 H   0  0
   -1.2969    2.0682    1.4648 H   0  0
   -2.3416    1.2921    0.3300 H   0  0
    1.3643   -1.8767    4.0300 H   0  0
    0.0190   -2.9615    3.7146 H   0  0
    1.3579   -1.2347   -2.2214 H   0  0
    0.3669   -2.1081   -1.0965 H   0  0
   -0.4102    1.2195    3.0701 H   0  0
    1.1076    0.5536    3.5883 H   0  0
   -1.8596    3.3882   -0.6031 H   0  0
   -0.1620    3.3093   -0.2012 H   0  0
    1.3805    1.7261   -1.3558 H   0  0
    0.9008    0.9615   -2.8530 H   0  0
    2.5784   -0.8045    1.8075 H   0  0
   -1.0622   -0.4676    0.6988 H   0  0
   -2.1755   -0.5241   -1.2390 H   0  0
   -1.6194    1.1478   -3.6263 H   0  0
    3.0358   -2.9263    2.6166 H   0  0
    2.5575   -3.6426    1.0657 H   0  0
    1.8346   -4.2313    2.5752 H   0  0
   -0.1706    2.9565   -3.9053 H   0  0
    0.4360    3.9207   -2.5454 H   0  0
   -1.2859    3.9709   -2.9700 H   0  0
    2.1200    1.5709    0.3256 H   0  0
    2.5066    1.4419    2.0522 H   0  0
    1.1315    2.4300    1.5224 H   0  0
    1.0256   -6.1318   -1.0608 H   0  0
    0.4118   -6.8718    0.4371 H   0  0
   -0.5741   -6.9108   -1.0195 H   0  0
   -1.0963   -2.2171   -2.6298 H   0  0
   -0.5836   -0.9553   -3.7801 H   0  0
   -1.3951   -5.1517    0.5517 H   0  0
   -0.7802   -4.4060   -0.9464 H   0  0
   -2.3276    2.4539   -4.4321 H   0  0
   -3.5289    1.2626   -1.4435 H   0  0
   -2.5585   -1.9530   -4.3736 H   0  0
  1  2  1  0
  1  4  2  0
  2  5  2  0
  3  5  1  0
  3  6  2  0
  4  6  1  0
  4 31  1  0
  5 37  1  0
  6 38  1  0
  7 21  1  1
  7 33  2  0
  7 35  1  0
  8 31  1  0
  8 32  1  0
  8 36  2  0
  9 12  1  0
  9 14  1  0
 10 13  1  0
 10 17  1  0
 11 15  1  0
 11 18  1  0
 12 21  1  0
 13 22  1  1
 14 24  1  0
 15 23  1  0
 16 22  1  0
 16 23  1  0
 17 21  1  0
 17 24  1  0
 18 22  1  0
 18 24  1  0
 19 20  1  0
 19 22  1  0
 19 29  1  0
 20 23  1  0
 20 32  1  0
 21 25  1  0
 23 26  1  1
 24 27  1  6
 28 30  1  0
 29 34  1  0
 30 35  1  0
  1 39  1  0
  2 40  1  0
  3 41  1  0
  9 42  1  0
  9 43  1  0
 10 44  1  0
 10 45  1  0
 11 46  1  0
 11 47  1  0
 12 48  1  0
 12 49  1  0
 13 50  1  0
 13 51  1  0
 14 52  1  0
 14 53  1  0
 15 54  1  0
 15 55  1  0
 16 56  1  0
 16 57  1  0
 17 58  1  1
 18 59  1  1
 19 60  1  6
 20 61  1  1
 25 62  1  0
 25 63  1  0
 25 64  1  0
 26 65  1  0
 26 66  1  0
 26 67  1  0
 27 68  1  0
 27 69  1  0
 27 70  1  0
 28 71  1  0
 28 72  1  0
 28 73  1  0
 29 74  1  0
 29 75  1  0
 30 76  1  0
 30 77  1  0
 31 78  1  0
 32 79  1  0
 34 80  1  0
M  END
> <Name>
Ix

> <pIC50_JEKO-1>
-1.436

> <original_article_set>
training

$$$$
Is
  SciTegic08162113593D

 84 88  0  0  1  0            999 V2000
   -0.9568    0.4471    9.1638 C   0  0
   -1.1114    0.1786    7.8038 C   0  0
   -0.5349   -0.5614   10.0303 C   0  0
   -0.4224   -2.1069    8.1768 C   0  0
   -0.8442   -1.0984    7.3103 C   0  0
   -0.2678   -1.8383    9.5368 C   0  0
    0.1977   -0.0993   -4.4757 C   0  0
   -1.4234   -2.5079    5.2472 C   0  0
    2.5773    1.4568   -1.8785 C   0  0
   -0.3406   -1.0009   -1.8314 C   0  0
    0.0421    1.2656    1.8921 C   0  0
    2.0920    0.6824   -3.0974 C   0  0
   -1.3037   -1.3451   -0.7089 C   0  0
    1.7871    1.1098   -0.6169 C   0  0
    0.9330    0.2880    2.6630 C   0  0
    0.3610   -1.6168    1.1825 C   0  0
   -0.2539    0.5278   -2.0627 C   0  0  2  0  0  0
   -0.5296    0.7241    0.5513 C   0  0  2  0  0  0
   -1.8790   -1.1722    1.7572 C   0  0  2  0  0  0
   -1.0768   -1.2122    3.0861 C   0  0  2  0  0  0
    0.5852    0.8469   -3.3582 C   0  0  2  0  0  0
   -0.8344   -0.8102    0.6421 C   0  0  1  0  0  0
    0.4168   -1.1682    2.6462 C   0  0  2  0  0  0
    0.2475    1.2538   -0.7481 C   0  0  1  0  0  0
    0.2845    2.2328   -3.9648 C   0  0
    1.3700   -2.0459    3.4609 C   0  0
   -0.0980    2.7731   -0.8466 C   0  0
   -3.1232   -0.5697   -5.9381 C   0  0
    0.3993   -4.1046    9.8108 C   0  0
   -3.1366   -0.3138    1.8472 C   0  0
   -1.6393   -0.8207   -5.7751 C   0  0
   -1.0013   -1.3710    5.9268 N   0  0
   -1.4418   -2.3765    3.8603 N   0  0
    0.9825   -0.8469   -5.0434 O   0  0
   -3.9810   -0.8545    2.8471 O   0  0
    0.1438   -2.8225   10.3823 O   0  0
   -1.1357    0.0216   -4.7335 O   0  0
   -1.9489   -3.9707    5.8842 S   0  0
   -1.1640    1.4417    9.5475 H   0  0
   -1.4412    0.9720    7.1380 H   0  0
   -0.4159   -0.3453   11.0884 H   0  0
   -0.2123   -3.1041    7.7966 H   0  0
    3.6355    1.2227   -1.7084 H   0  0
    2.5408    2.5339   -2.0697 H   0  0
    0.6487   -1.4271   -1.6352 H   0  0
   -0.7213   -1.5065   -2.7252 H   0  0
   -0.8037    1.5331    2.5377 H   0  0
    0.5890    2.2042    1.7689 H   0  0
    2.6674    1.0005   -3.9768 H   0  0
    2.3346   -0.3796   -2.9574 H   0  0
   -2.2946   -0.9417   -0.9521 H   0  0
   -1.4211   -2.4356   -0.6686 H   0  0
    2.0515    0.0850   -0.3556 H   0  0
    2.1644    1.7407    0.1959 H   0  0
    1.9457    0.3217    2.2414 H   0  0
    1.0240    0.6415    3.6983 H   0  0
    0.1638   -2.6962    1.1199 H   0  0
    1.2998   -1.4480    0.6571 H   0  0
   -1.2857    0.8585   -2.2548 H   0  0
   -1.5164    1.1994    0.4458 H   0  0
   -2.2308   -2.1945    1.5436 H   0  0
   -1.3143   -0.3556    3.7320 H   0  0
    0.5295    2.9981   -3.2377 H   0  0
   -0.7679    2.2878   -4.2172 H   0  0
    0.8850    2.3664   -4.8570 H   0  0
    1.0153   -3.0741    3.4554 H   0  0
    1.4123   -1.6859    4.4863 H   0  0
    2.3657   -2.0069    3.0249 H   0  0
   -1.1676    2.8684   -0.9375 H   0  0
    0.3969    3.1736   -1.7162 H   0  0
    0.2543    3.2558    0.0503 H   0  0
   -3.6614   -0.7979   -5.0140 H   0  0
   -3.3107    0.4749   -6.2077 H   0  0
   -3.5322   -1.1852   -6.7463 H   0  0
    0.7201   -4.7960   10.5938 H   0  0
    1.1763   -4.0159    9.0474 H   0  0
   -0.5189   -4.4784    9.3515 H   0  0
   -3.6606   -0.3198    0.8913 H   0  0
   -2.8710    0.7091    2.1145 H   0  0
   -1.1070   -0.5906   -6.7029 H   0  0
   -1.4538   -1.8646   -5.5050 H   0  0
   -0.8311   -0.5595    5.3390 H   0  0
   -1.7322   -3.2025    3.3399 H   0  0
   -4.7735   -0.2923    2.8860 H   0  0
  1  2  1  0
  1  3  2  0
  2  5  2  0
  3  6  1  0
  4  5  1  0
  4  6  2  0
  5 32  1  0
  6 36  1  0
  7 21  1  0
  7 34  2  0
  7 37  1  0
  8 32  1  0
  8 33  1  0
  8 38  2  0
  9 12  1  0
  9 14  1  0
 10 13  1  0
 10 17  1  0
 11 15  1  0
 11 18  1  0
 12 21  1  0
 13 22  1  6
 14 24  1  0
 15 23  1  0
 16 22  1  0
 16 23  1  0
 17 21  1  0
 17 24  1  0
 18 22  1  0
 18 24  1  0
 19 20  1  0
 19 22  1  0
 19 30  1  0
 20 23  1  0
 20 33  1  0
 21 25  1  1
 23 26  1  1
 24 27  1  1
 28 31  1  0
 29 36  1  0
 30 35  1  0
 31 37  1  0
  1 39  1  0
  2 40  1  0
  3 41  1  0
  4 42  1  0
  9 43  1  0
  9 44  1  0
 10 45  1  0
 10 46  1  0
 11 47  1  0
 11 48  1  0
 12 49  1  0
 12 50  1  0
 13 51  1  0
 13 52  1  0
 14 53  1  0
 14 54  1  0
 15 55  1  0
 15 56  1  0
 16 57  1  0
 16 58  1  0
 17 59  1  1
 18 60  1  1
 19 61  1  1
 20 62  1  6
 25 63  1  0
 25 64  1  0
 25 65  1  0
 26 66  1  0
 26 67  1  0
 26 68  1  0
 27 69  1  0
 27 70  1  0
 27 71  1  0
 28 72  1  0
 28 73  1  0
 28 74  1  0
 29 75  1  0
 29 76  1  0
 29 77  1  0
 30 78  1  0
 30 79  1  0
 31 80  1  0
 31 81  1  0
 32 82  1  0
 33 83  1  0
 35 84  1  0
M  END
> <Name>
Is

> <pIC50_JEKO-1>
-1.504

> <original_article_set>
test

$$$$
IIc
  SciTegic08162113593D

 76 80  0  0  1  0            999 V2000
    5.4822   -3.2631   -8.3067 C   0  0
    6.0242   -2.2302   -7.5420 C   0  0
    4.3191   -3.9072   -7.8846 C   0  0
    5.4032   -1.8414   -6.3550 C   0  0
    3.6982   -3.5184   -6.6976 C   0  0
    4.2402   -2.4855   -5.9328 C   0  0
   -0.0416   -0.5480    4.2420 C   0  0
    2.9206   -2.8129   -3.7579 C   0  0
   -3.1160   -0.6671    1.9158 C   0  0
    0.5651   -0.9487    1.4998 C   0  0
   -0.9736    0.1945   -1.9995 C   0  0
   -2.1880   -0.9815    3.0857 C   0  0
    0.8691   -1.0437    0.0047 C   0  0
   -2.3701   -0.4474    0.5946 C   0  0
    0.0142   -0.4201   -3.0227 C   0  0
    2.6726   -0.1864   -1.0373 C   0  0
    1.4435    1.2780   -1.9531 C   0  0
   -0.3048    0.2755    1.8797 C   0  0  2  0  0  0
   -0.3264    0.7405   -0.6754 C   0  0  2  0  0  0
    2.5826   -0.6209   -2.5149 C   0  0  2  0  0  0
   -1.0303    0.0240    3.2470 C   0  0  2  0  0  0
    1.2664    0.4215   -0.5276 C   0  0  1  0  0  0
    1.4221    0.2277   -3.0423 C   0  0  1  0  0  0
   -1.2346    0.6124    0.6704 C   0  0  1  0  0  0
   -1.5220    1.3129    3.9314 C   0  0
    1.7316    0.8099   -4.4215 C   0  0
   -1.9187    2.0017    0.8422 C   0  0
    3.0816    0.9703    5.3948 C   0  0
    2.0091   -0.0958    5.3254 C   0  0
    3.6087   -2.0898   -4.7255 N   0  0
    2.4408   -2.0375   -2.6977 N   0  0
   -0.1781   -1.6286    4.7995 O   0  0
    0.9955    0.3219    4.4056 O   0  0
    2.6474   -4.4689   -3.6893 S   0  0
    5.9650   -3.5656   -9.2314 H   0  0
    6.9291   -1.7279   -7.8707 H   0  0
    3.8968   -4.7109   -8.4809 H   0  0
    5.8347   -1.0350   -5.7673 H   0  0
    2.7921   -4.0276   -6.3786 H   0  0
   -3.8204   -1.4987    1.7892 H   0  0
   -3.7335    0.2049    2.1547 H   0  0
    0.0953   -1.8915    1.8000 H   0  0
    1.5160   -0.8921    2.0456 H   0  0
   -1.5018    1.0278   -2.4823 H   0  0
   -1.7395   -0.5607   -1.8111 H   0  0
   -2.7801   -1.0283    4.0093 H   0  0
   -1.7927   -1.9964    2.9490 H   0  0
    1.6043   -1.8542   -0.0727 H   0  0
    0.0274   -1.5047   -0.5216 H   0  0
   -1.9726   -1.4184    0.2809 H   0  0
   -3.1104   -0.1536   -0.1600 H   0  0
    0.0765   -1.4952   -2.8251 H   0  0
   -0.4524   -0.3559   -4.0146 H   0  0
    3.1557   -0.9449   -0.4044 H   0  0
    3.4431    0.5992   -0.9298 H   0  0
    0.7290    2.0817   -2.1836 H   0  0
    2.3685    1.8824   -1.9419 H   0  0
    0.3877    1.1194    2.0170 H   0  0
   -0.3610    1.8353   -0.7724 H   0  0
    3.5299   -0.3587   -3.0022 H   0  0
   -2.2450    1.8039    3.2892 H   0  0
   -0.6768    1.9707    4.1017 H   0  0
   -1.9857    1.0589    4.8784 H   0  0
    2.7224    1.2600   -4.4167 H   0  0
    0.9947    1.5701   -4.6734 H   0  0
    1.7009    0.0199   -5.1694 H   0  0
   -1.1476    2.7540    0.8972 H   0  0
   -2.4975    1.9834    1.7523 H   0  0
   -2.5565    2.1725   -0.0108 H   0  0
    3.5419    1.1251    4.4150 H   0  0
    2.6604    1.9196    5.7415 H   0  0
    3.8608    0.6877    6.1105 H   0  0
    1.5529   -0.2457    6.3085 H   0  0
    2.4315   -1.0434    4.9781 H   0  0
    3.7452   -1.1063   -4.5083 H   0  0
    1.9181   -2.5520   -1.9853 H   0  0
  1  2  2  0
  1  3  1  0
  2  4  1  0
  3  5  2  0
  4  6  2  0
  5  6  1  0
  6 30  1  0
  7 21  1  0
  7 32  2  0
  7 33  1  0
  8 30  1  0
  8 31  1  0
  8 34  2  0
  9 12  1  0
  9 14  1  0
 10 13  1  0
 10 18  1  0
 11 15  1  0
 11 19  1  0
 12 21  1  0
 13 22  1  0
 14 24  1  0
 15 23  1  0
 16 20  1  0
 16 22  1  0
 17 22  1  1
 17 23  1  0
 18 21  1  0
 18 24  1  0
 19 22  1  0
 19 24  1  0
 20 23  1  0
 20 31  1  0
 21 25  1  1
 23 26  1  6
 24 27  1  6
 28 29  1  0
 29 33  1  0
  1 35  1  0
  2 36  1  0
  3 37  1  0
  4 38  1  0
  5 39  1  0
  9 40  1  0
  9 41  1  0
 10 42  1  0
 10 43  1  0
 11 44  1  0
 11 45  1  0
 12 46  1  0
 12 47  1  0
 13 48  1  0
 13 49  1  0
 14 50  1  0
 14 51  1  0
 15 52  1  0
 15 53  1  0
 16 54  1  0
 16 55  1  0
 17 56  1  0
 17 57  1  0
 18 58  1  6
 19 59  1  6
 20 60  1  1
 25 61  1  0
 25 62  1  0
 25 63  1  0
 26 64  1  0
 26 65  1  0
 26 66  1  0
 27 67  1  0
 27 68  1  0
 27 69  1  0
 28 70  1  0
 28 71  1  0
 28 72  1  0
 29 73  1  0
 29 74  1  0
 30 75  1  0
 31 76  1  0
M  END
> <Name>
IIc

> <pIC50_JEKO-1>
-1.332

> <original_article_set>
training

$$$$
IIf
  SciTegic08162113593D

 80 84  0  0  1  0            999 V2000
    4.2092    7.7260   -0.8144 C   0  0
    4.0923    8.3519    0.4266 C   0  0
    3.2071    6.8625   -1.2572 C   0  0
    2.9735    8.1142    1.2250 C   0  0
    2.0883    6.6248   -0.4588 C   0  0
    1.9715    7.2506    0.7823 C   0  0
    0.7799    6.9974    1.6327 C   0  0
   -1.1630   -3.5128   -2.4820 C   0  0
   -1.8374    5.1496    2.1417 C   0  0
    0.9227   -1.1934   -3.4622 C   0  0
   -1.1780   -1.8303    0.2595 C   0  0
    0.8591    2.0720   -0.1851 C   0  0
    1.0704   -2.5948   -2.8866 C   0  0
   -1.8976   -0.5773    0.7433 C   0  0
    1.1165   -0.0923   -2.4156 C   0  0
    1.3631    2.3140    1.2420 C   0  0
   -1.8200    1.9188    1.1719 C   0  0
   -0.1333    0.5634    2.1976 C   0  0
   -0.4662   -1.5742   -1.0809 C   0  0  2  0  0  0
   -0.0826    0.8540   -0.3580 C   0  0  2  0  0  0
   -1.0187    2.7566    2.1827 C   0  0  1  0  0  0
    0.0280   -2.8855   -1.7830 C   0  0  1  0  0  0
   -0.9721    0.6326    0.9109 C   0  0  1  0  0  0
    0.3276    2.0181    2.3495 C   0  0  2  0  0  0
    0.6076   -0.4385   -0.9724 C   0  0  2  0  0  0
    0.5752   -3.9624   -0.8303 C   0  0
    0.9506    2.2743    3.7231 C   0  0
    1.8378   -0.8865   -0.1509 C   0  0
   -3.2181   -2.0382   -5.1261 C   0  0
   -2.7913   -3.1106   -4.1466 C   0  0
   -0.3726    6.6460    0.9564 N   0  0
   -0.9269    4.1442    1.8266 N   0  0
   -1.5195    6.4122    1.6801 N   0  0
    0.8719    7.1220    2.8513 O   0  0
   -1.5924   -4.6312   -2.2334 O   0  0
   -1.6581   -2.6431   -3.4080 O   0  0
   -3.2523    4.9325    3.0204 S   0  0
    5.0803    7.9111   -1.4360 H   0  0
    4.8727    9.0241    0.7713 H   0  0
    3.2980    6.3754   -2.2236 H   0  0
    2.8926    8.6072    2.1904 H   0  0
    1.3138    5.9498   -0.8139 H   0  0
    1.6162   -1.0592   -4.3024 H   0  0
   -0.0825   -1.0925   -3.8976 H   0  0
   -0.4824   -2.1874    1.0297 H   0  0
   -1.9300   -2.6247    0.1481 H   0  0
    0.2995    2.9652   -0.4895 H   0  0
    1.7131    2.0376   -0.8642 H   0  0
    0.9509   -3.3099   -3.7024 H   0  0
    2.0813   -2.7264   -2.5026 H   0  0
   -2.6837   -0.3309    0.0186 H   0  0
   -2.4123   -0.8008    1.6841 H   0  0
    2.1862    0.1644   -2.3945 H   0  0
    0.5997    0.8132   -2.7737 H   0  0
    2.2488    1.6905    1.4131 H   0  0
    1.7187    3.3489    1.3188 H   0  0
   -2.7906    1.6675    1.6181 H   0  0
   -2.0366    2.4624    0.2454 H   0  0
   -0.7549    0.2653    3.0527 H   0  0
    0.7028   -0.1325    2.1615 H   0  0
   -1.2355   -1.1868   -1.7549 H   0  0
   -0.7841    1.1674   -1.1511 H   0  0
   -1.5715    2.7401    3.1402 H   0  0
    1.4363   -3.5702   -0.2964 H   0  0
    0.8720   -4.8363   -1.4036 H   0  0
   -0.1962   -4.2416   -0.1178 H   0  0
    0.2200    2.0654    4.5015 H   0  0
    1.2643    3.3134    3.7950 H   0  0
    1.8150    1.6280    3.8595 H   0  0
    1.5188   -1.1334    0.8542 H   0  0
    2.5560   -0.0763   -0.1225 H   0  0
    2.2788   -1.7557   -0.6233 H   0  0
   -3.4979   -1.1201   -4.6020 H   0  0
   -2.4086   -1.8120   -5.8278 H   0  0
   -4.0710   -2.3781   -5.7229 H   0  0
   -2.5128   -4.0261   -4.6772 H   0  0
   -3.6009   -3.3348   -3.4457 H   0  0
   -0.4595    6.5846   -0.0521 H   0  0
   -0.1115    4.4368    1.2858 H   0  0
   -2.1201    7.2131    1.8445 H   0  0
  1  2  2  0
  1  3  1  0
  2  4  1  0
  3  5  2  0
  4  6  2  0
  5  6  1  0
  6  7  1  0
  7 31  1  0
  7 34  2  0
  8 22  1  0
  8 35  2  0
  8 36  1  0
  9 32  1  0
  9 33  1  0
  9 37  2  0
 10 13  1  0
 10 15  1  0
 11 14  1  0
 11 19  1  0
 12 16  1  0
 12 20  1  0
 13 22  1  0
 14 23  1  0
 15 25  1  0
 16 24  1  0
 17 21  1  0
 17 23  1  0
 18 23  1  1
 18 24  1  0
 19 22  1  0
 19 25  1  0
 20 23  1  0
 20 25  1  0
 21 24  1  0
 21 32  1  0
 22 26  1  1
 24 27  1  6
 25 28  1  6
 29 30  1  0
 30 36  1  0
 31 33  1  0
  1 38  1  0
  2 39  1  0
  3 40  1  0
  4 41  1  0
  5 42  1  0
 10 43  1  0
 10 44  1  0
 11 45  1  0
 11 46  1  0
 12 47  1  0
 12 48  1  0
 13 49  1  0
 13 50  1  0
 14 51  1  0
 14 52  1  0
 15 53  1  0
 15 54  1  0
 16 55  1  0
 16 56  1  0
 17 57  1  0
 17 58  1  0
 18 59  1  0
 18 60  1  0
 19 61  1  1
 20 62  1  1
 21 63  1  1
 26 64  1  0
 26 65  1  0
 26 66  1  0
 27 67  1  0
 27 68  1  0
 27 69  1  0
 28 70  1  0
 28 71  1  0
 28 72  1  0
 29 73  1  0
 29 74  1  0
 29 75  1  0
 30 76  1  0
 30 77  1  0
 31 78  1  0
 32 79  1  0
 33 80  1  0
M  END
> <Name>
IIf

> <pIC50_JEKO-1>
-1.755

> <original_article_set>
training

$$$$
